14

O	38.887132495458886	36.92743377274957	29.906910569385136
O	38.30042467967309	35.99326028857371	29.121783658270388
O	37.53821471834784	35.06992199407355	29.701846137390685
O	37.30627413820337	35.15393765733107	31.00524563299501
O	37.9582502203223	36.02783183078824	31.831729910516998
O	38.63426658551947	37.060162010909096	31.222889667905687
O	37.345451406887776	35.9715315027829	33.01651897895093
O	36.250040511396364	35.209891401416606	32.90050191278515
O	36.43695391162489	34.51134795626915	31.75168759925147
O	39.6352168514538	37.97183992509241	29.26541555102412
O	38.10633295779275	36.1315032632466	27.875564789933193
O	36.80969840412957	34.09715902267153	28.93233804893447
O	38.9666370342258	38.00884827420001	31.957928163437494
O	37.78612559889248	36.7150201387413	34.19498694415112
