24

O	1.3204461750999998	-6.417500498399999	5.850937310000001
O	0.1590586100999999	-5.8408007284	6.16035932
O	0.05521769409999988	-5.0159646784	7.2326362
O	1.1754957390999998	-4.290132808399999	7.490400810000001
O	2.3933656841	-4.9062140264	7.22776594
O	2.4693883840999997	-5.7527446283999994	6.1272167600000005
O	3.3044690841	-4.3519917993999995	8.02850478
O	2.6784683641	-3.6982581703999995	9.0162031
O	1.4098027621	-3.5440490813999994	8.59554256
O	1.3072269940999999	-7.570756018399999	4.994667448
O	-0.8660018559000001	-6.1465262884	5.479087176
O	-1.2242041259	-4.3264822463999995	7.37663366
O	3.5622092040999997	-6.092226718399999	5.631872339
O	4.6838431841	-4.755498309399999	8.08453797
O	-2.1489909459	2.4286096716000003	4.1664080000000006
O	-10.1166399759	-3.1488568353999997	7.22348882
O	-4.4452323059	2.278880041600001	7.84726751
O	0.40741096309999986	2.5522066616000005	0.013934270000000026
O	3.1524841841	0.2885720816000008	1.3481004900000002
O	9.832674684099999	1.5693981016	-2.2354552099999996
O	3.3085520641	2.4087415016000007	-4.20544383
O	3.3471422441	-1.1089982483999994	-3.320519019999999
O	3.4777110141	-3.6175137163999995	-8.22052809
O	-6.8151119259	-3.6510392593999996	-2.6172529399999993
