29

O	-64.7279732947862	15.845410887429523	-7.697480022970446
O	-64.60624951049132	13.833074812183655	-5.507454345985128
O	-64.39957459681526	11.699282129130925	-7.224940093570284
O	-61.71489770421404	10.421841151302878	-5.671501386495381
O	-62.573181756325845	12.339567456407789	-6.8987613806762536
O	-62.420220175514366	8.978497899753018	-6.530596066338084
O	-63.297295594308416	10.26670527811321	-7.250062189063387
O	-63.705251691227886	10.979802901036827	-7.956196208186174
O	-62.083361192044464	9.207282721620201	-5.687043717493097
O	-62.38463811979979	11.474011531739457	-7.688098611416661
O	-63.401235331806745	9.416267539277378	-5.8558339974735105
O	-63.36834539230223	11.502572296183248	-9.049472146690494
O	-62.34800193837564	8.900768527844082	-4.385684526087777
O	-62.154471388857715	10.230741384515992	-7.679987760970889
O	-63.745585864541006	10.624855366125052	-6.112290075849456
O	-62.447653273090175	12.235380569050179	-8.655962931112395
O	-63.08179256462726	9.808054049217843	-3.8397768804653345
O	-63.237657345728316	13.179882342906067	-8.190956096658777
O	-63.341352288139426	10.905458315661072	-4.485574537314697
O	-64.35904324799756	12.850545227280818	-7.693262973230809
O	-62.304293968272844	11.324203157616278	-4.973749435012056
O	-63.784827935772306	14.09046278133412	-8.816799384425906
O	-64.19393930086171	11.775957631875617	-4.597914251864189
O	-64.77962726947153	13.76587950143404	-6.8592179749452775
O	-62.28963618078989	12.530349696663121	-5.474323707384457
O	-63.84332749899364	15.045012950189761	-7.986125693436547
O	-64.11539148268248	13.027748928231697	-4.606710225052037
O	-64.11344930367545	14.875990599773498	-6.754056939712498
O	-63.072894902562645	13.424852216713287	-5.150387493835677
