14

O	38.88712384685872	36.927467910598835	29.906953985981367
O	38.300417358731025	35.993310904312544	29.1218112778571
O	37.53824540385662	35.06992211542577	29.701854672660378
O	37.306296198188534	35.15393066555147	31.005256842421304
O	37.95826377631051	36.0278202111565	31.83175914510475
O	38.6342194408072	37.06020316056466	31.222929302478857
O	37.34545353609581	35.971517812705514	33.016536052047016
O	36.250007545287254	35.209875374058946	32.900501319532744
O	36.436973974404	34.51133609425629	31.751690423019138
O	39.63514925014431	37.97193159497448	29.265471842056026
O	38.106362088069886	36.131532221093046	27.875586581379636
O	36.809726656535844	34.09716376388259	28.93234248674563
O	38.96664354723117	38.00883953324706	31.957992283157267
O	37.78609680898407	36.71500819465021	34.195012032664664
