525

O	-2.61841909363286	-1.701423077128833	8.864446087687499
O	-5.24193371363286	-1.673929807128833	8.5375696576875
O	-6.12965929363286	-2.4652502571288326	11.715019577687501
O	-8.15611490363286	-5.147596137128834	8.2833407276875
O	-5.93691402363286	-1.774276447128833	9.8332507876875
O	-8.00810152363286	-2.843283337128833	8.0783063376875
O	-8.123127513632861	-4.436733097128833	9.9098600476875
O	-7.0330350936328605	-3.046647647128833	11.0009576576875
O	-9.360830783632862	-4.600271577128833	8.068970547687499
O	-7.11422070363286	-2.186915917128833	9.9520663176875
O	-9.096206403632861	-3.237712737128833	8.3443580176875
O	-6.51925395363286	-4.293291327128833	10.853068847687501
O	-9.503695383632861	-4.591981667128834	6.7137090876875
O	-7.58945389363286	-3.2502430971288327	10.0216362476875
O	-8.88627350363286	-3.4606476171288327	9.6618329076875
O	-5.60969189363286	-4.123122497128833	10.0584792676875
O	-8.55496118363286	-3.812760397128833	6.1791566976875
O	-4.58968505363286	-3.4608248271288327	10.753035267687501
O	-7.40897585363286	-3.6849310271288327	6.9253545076875
O	-4.93007464363286	-2.410138487128833	11.3658934776875
O	-7.1230263036328605	-4.687446477128833	7.653045927687501
O	-3.48989945363286	-3.327954757128833	10.0809879276875
O	-6.60966046363286	-2.675667207128833	7.0745630276875
O	-4.00530284363286	-1.5607219471288332	11.6469007776875
O	-5.90143097363286	-4.670286787128833	8.1168574076875
O	-2.8223536736328603	-2.220314167128833	9.998195647687501
O	-5.39840978363286	-2.600764067128833	7.627854967687499
O	-2.85885784363286	-1.4977047171288331	11.0478918676875
O	-5.01488936363286	-3.746927757128833	7.9484912376875005
O	-21.62842741363286	33.69035225287117	5.7420254976875
O	-17.76780751363286	33.68353735287117	4.9283079276875
O	-16.42915211363286	31.37797885287117	2.1687639526874998
O	-15.46022101363286	29.07675395287117	4.7439213576874995
O	-13.64764741363286	26.42646625287117	2.9471558876875
O	-12.687866713632861	23.146771452871167	4.0758213276875
O	-10.061056963632861	21.00723255287117	2.3698565276875
O	-10.522063483632861	17.464767652871167	3.4339506476875
O	-7.23771889363286	15.460267252871168	3.4268213376875
O	-7.51407710363286	11.662035352871166	3.0756574676875
O	-4.72490902363286	10.120976752871167	0.7665968236874999
O	-3.11318920363286	13.230337052871167	-0.7568589723125001
O	-1.0317705826328603	14.136679152871167	2.4639383776874997
O	1.0437199763671399	16.786893052871168	0.7206670026875
O	1.12172285636714	20.40094685287117	-0.1366414023125
O	2.95944775636714	19.708834852871167	-3.4603018323124997
O	0.7699492963671398	18.748247052871168	-6.458964372312501
O	-2.5717229136328603	19.29222545287117	-4.6597247023125
O	-4.99427709363286	20.759495752871167	-7.228867592312499
O	-8.07065586363286	20.29488165287117	-5.0030962623125
O	-6.50975096363286	22.29461925287117	-2.1067554523125
O	-5.18453675363286	24.787536652871168	-4.507263972312501
O	-8.695729333632862	25.26788145287117	-5.9228701923125
O	-10.38501266363286	25.25227265287117	-2.4903560223125
O	-8.128211063632861	28.01063165287117	-1.2394763923125
O	-9.053767453632862	29.764166552871167	-4.2491884723125
O	-11.662099613632861	32.11422005287117	-3.0481755823125005
O	-11.91114071363286	31.10407855287117	0.4268548726874999
O	-11.843237413632862	33.23063365287117	3.5045550676875
O	-11.04923551363286	30.68344275287117	5.7662177576875
O	-9.550468923632861	27.495684452871167	5.0581460576875
O	-9.438019123632861	24.767139252871168	7.4137988676875
O	-7.29448953363286	21.86079795287117	6.3819516376875
O	-9.065882673632862	18.99487015287117	8.0607653176875
O	-8.303211053632861	15.408339852871167	8.6468906576875
O	-11.256728513632861	13.364295952871167	10.1389361276875
O	-10.202304653632861	10.612280952871167	12.6149977776875
O	-12.304348213632862	8.286443802871167	14.8628384776875
O	-9.880993733632861	7.523916372871167	17.9660244776875
O	-12.305318713632861	4.789322562871167	19.2788487776875
O	-12.237364013632861	3.031835862871167	15.7820481776875
O	-8.28843560363286	3.300300982871167	15.8426600776875
O	-7.9583412336328605	1.375922762871167	19.239760577687502
O	-10.47944675363286	-1.407482109128833	17.8272116776875
O	-9.00163168363286	-1.654174947128833	14.1378781776875
O	-7.11198541363286	-4.710379287128833	12.561880677687501
O	-4.272076263632861	-2.1424969271288328	11.5230840776875
O	-0.7203170536328601	-2.6174496071288327	13.0414690776875
O	1.4847449563671398	0.07989434687116698	14.991181477687501
O	3.8587406563671403	0.6487456828711669	11.9304085776875
O	0.9292789763671397	1.954172202871167	9.6835285576875
O	-0.4996701260328602	4.228270502871167	12.5458288776875
O	3.05324656636714	5.632993612871167	13.3919600776875
O	3.6384197063671397	6.346690322871167	9.629776107687501
O	0.18527619036713983	8.179109592871166	9.3496003676875
O	0.7630747263671399	10.333619552871166	12.5839871776875
O	4.29054949636714	11.342888652871167	11.3285642776875
O	2.62969203636714	12.330859352871167	7.9259866876875
O	0.014254214367139806	14.515322552871167	9.8380252376875
O	2.80696905636714	16.028548452871167	12.1174806776875
O	4.93186631636714	16.84660875287117	8.984781507687499
O	1.73909637636714	18.241267252871168	7.2573068476875005
O	0.8735873663671397	20.36005545287117	10.4375609276875
O	4.6024892263671395	21.399560152871167	10.630085947687501
O	4.43705080636714	22.33018815287117	6.888068027687499
O	0.9944124063671399	24.11035925287117	7.4387269976875
O	2.47348304636714	25.901170852871168	10.5805852976875
O	5.11040035636714	27.188937352871168	8.2022996876875
O	2.02904401636714	28.609457952871168	6.394018967687501
O	0.3598907533671398	29.976247852871168	9.6447115376875
O	-2.13032531363286	27.37808095287117	9.3629069476875
O	-2.65471319363286	24.291887352871168	11.2145239076875
O	-3.95335229363286	20.934456152871167	10.5411795176875
O	-7.3702941636328605	20.34500345287117	12.2729007776875
O	-7.57133998363286	16.753457752871167	13.3295619776875
O	-11.407120013632861	16.331449952871168	13.9363546776875
O	-12.64776871363286	13.452334352871167	16.126795477687498
O	-15.75488291363286	11.503515152871167	14.7568537776875
O	-17.48196361363286	10.183738752871166	11.4673489776875
O	-17.62891351363286	12.274085252871167	8.1639753476875
O	-21.53120871363286	11.956329052871167	7.8531073676875
O	-22.056478913632862	13.274026152871167	11.539902277687501
O	-19.03775341363286	15.714754852871168	11.6331541776875
O	-19.66817801363286	17.51989195287117	8.292901457687499
O	-23.379716013632862	18.48503475287117	9.0248070076875
O	-22.15022321363286	19.835905252871168	12.4734842776875
O	-18.96432721363286	21.54699495287117	11.014524877687501
O	-21.00307331363286	22.88522305287117	8.0814623176875
O	-23.10324701363286	24.49246875287117	10.8499515476875
O	-20.383665413632862	25.21345325287117	13.525681977687501
O	-17.86101641363286	26.68229485287117	11.0186349476875
O	-20.474420313632862	27.76426835287117	8.5694392676875
O	-18.84982781363286	25.96519035287117	5.627362857687499
O	-19.669560113632862	26.77427825287117	2.0636621306875
O	-16.936586613632862	25.02501545287117	0.09191584768749994
O	-15.608441213632862	21.64646905287117	0.44208560768749994
O	-12.669295713632861	20.28708505287117	-1.6445263123125002
O	-11.323351213632861	16.82326945287117	-2.0138586823125
O	-8.784030013632862	14.776419552871166	-4.041893742312499
O	-10.813828213632862	12.216664252871167	-6.1447429123125
O	-11.04542461363286	8.723621472871166	-4.645080652312499
O	-11.43108551363286	6.044401872871167	-7.4096940823125
O	-12.195319113632861	3.1007545628711672	-5.086937582312499
O	-15.967239513632862	1.986077582871167	-5.0316173923125
O	-16.37643081363286	2.659019902871167	-1.2532473723125
O	-14.602849913632861	6.094134032871167	-1.6076628723125
O	-16.966828813632862	6.998424462871167	-4.5595611023125
O	-20.132183413632863	6.043884922871166	-2.5343878723125
O	-18.89372181363286	7.9765737228711675	0.6677589726875
O	-17.95238441363286	11.033362652871167	-1.4120465023125002
O	-21.37739111363286	10.886275552871167	-3.2333768623125
O	-23.203346213632862	10.827605352871167	0.2600983576875
O	-21.008398813632862	13.732167052871167	1.6056126746875
O	-21.58377611363286	15.569191452871166	-1.7416038723125
O	-25.37925831363286	15.002636452871167	-1.0940826523125002
O	-25.16640971363286	16.26852725287117	2.6109258476874997
O	-22.96476871363286	19.166553152871167	1.4021168787875
O	-25.461377613632862	19.82229375287117	-1.3122003623125003
O	-28.381373213632862	19.475748552871167	1.3788020523875
O	-26.39636291363286	21.878853652871168	3.5896149976875
O	-25.66263891363286	24.09706505287117	0.7083256066874999
O	-21.952824213632862	23.48033845287117	0.42905539968749995
O	-20.079565913632862	23.45490105287117	-2.9202229023124997
O	-17.96377071363286	20.50954585287117	-3.6474011623125002
O	-14.661504813632861	20.595027452871168	-5.600777602312499
O	-13.168841113632862	17.33288075287117	-6.8129922423125
O	-9.71083925363286	16.906179352871167	-8.4956922323125
O	-7.76196163363286	13.843362252871167	-9.7432541223125
O	-4.157672923632861	13.739418252871166	-8.374689562312499
O	-3.8198105736328603	10.360785852871167	-6.6711207923125
O	-3.60510559363286	8.627673662871167	-10.1163130223125
O	-1.6707517636328602	9.521630462871167	-13.169774322312499
O	-4.86035598363286	9.348493272871167	-15.3110166223125
O	-8.60161002363286	9.769635952871166	-15.151070522312498
O	-9.484183893632862	6.078621542871167	-14.790749522312499
O	-13.05691491363286	6.529475622871167	-16.1663144223125
O	-11.471046613632861	7.6759020728711675	-19.291376622312498
O	-9.31090924363286	4.471284472871167	-19.4703441223125
O	-12.496796113632861	2.373753872871167	-19.0184160223125
O	-14.47662911363286	4.362485832871167	-21.4014389223125
O	-11.56084001363286	3.7673547628711668	-23.7995168223125
O	-11.929519913632861	0.06079488487116702	-23.2077779223125
O	-15.767026613632861	-0.056676691128833	-23.7720644223125
O	-17.047530013632862	0.687239662871167	-20.4837745223125
O	-14.997084613632861	-2.284072537128833	-19.2198767223125
O	-11.64193731363286	-2.3377316871288327	-17.4221672223125
O	-8.602826733632861	-3.851590177128833	-19.1778150223125
O	-7.92895956363286	-7.376823837128834	-17.7911156223125
O	-4.34535996363286	-7.724970947128833	-19.0169798223125
O	-1.3844615856328601	-5.445152077128833	-18.3042420223125
O	-0.5620248809328602	-5.531143607128834	-21.8460392223125
O	-4.127623623632861	-4.261188287128833	-22.7230036223125
O	-3.82476404363286	-1.544237687128833	-20.1810294223125
O	-0.41566266863286017	-0.423663595128833	-21.4525501223125
O	-2.11018400363286	-0.246515631128833	-24.7035602223125
O	-4.92725517363286	1.996913172871167	-23.4582276223125
O	-2.6748007836328602	4.428140252871167	-21.5480882223125
O	-0.3524735396328602	4.7359742228711665	-24.2817164223125
O	-3.48353977363286	6.169825862871167	-25.9730300223125
O	-4.49173623363286	8.631826162871167	-23.4362392223125
O	-3.82253498363286	12.250473252871167	-23.1275552223125
O	-0.4281849156328602	13.235905052871166	-21.7214158223125
O	-0.3191629806328602	13.456125752871166	-18.1785498223125
O	-1.1226127276328601	16.69039375287117	-16.4036010223125
O	1.87311624636714	18.31438225287117	-14.7789868223125
O	2.01101669636714	18.48026995287117	-11.0970859223125
O	0.04873035136713988	21.41628435287117	-9.632130822312499
O	2.08058431636714	23.991917452871167	-7.7818150823125
O	3.08834652636714	23.47819975287117	-4.2523724823125
O	0.8692760963671399	25.20310055287117	-1.6728825223125
O	2.99220012636714	27.938960152871168	-0.33816074231250015
O	2.14854765636714	30.94140935287117	1.6984849686874999
O	1.5819236663671399	32.27713215287117	-1.5916641223124999
O	-1.0677786166328602	29.977824652871167	-2.7088539523125
O	-2.80261376363286	30.51172515287117	0.6614519516874999
O	-2.72172628363286	33.87123895287117	0.3964620526874999
O	-5.33232883363286	35.353109352871165	2.7387121976874997
O	-7.13902669363286	32.54566425287117	3.3462253776875
O	-6.86655932363286	32.223223952871166	7.1064096776875
O	-7.03635438363286	29.52140985287117	9.3357549176875
O	-9.27158793363286	30.202587152871168	12.3844570776875
O	-7.32355805363286	28.97111685287117	15.3286431776875
O	-8.36372471363286	28.61654245287117	19.0075083776875
O	-5.81110551363286	28.41266635287117	21.9321827776875
O	-7.16821589363286	25.18368345287117	22.8008776776875
O	-6.20402174363286	24.236739552871168	19.1404885776875
O	-3.61420028363286	21.73030075287117	20.2489951776875
O	-6.14459136363286	20.34689025287117	22.9216644776875
O	-9.209063363632861	20.298424452871167	20.4980136776875
O	-7.54042164363286	19.64962845287117	17.0630885776875
O	-3.81194657363286	18.570265652871168	17.679646777687502
O	-2.3167596136328603	15.450138752871167	16.0657993776875
O	-2.8760330836328603	12.634921852871166	18.6522231776875
O	0.08970539936713984	10.567618852871167	20.0565382776875
O	0.35000678436713983	6.733614552871167	19.7179333776875
O	-0.44907865763286015	6.518563972871167	23.538672777687502
O	-3.70412860363286	8.620861442871167	23.0429528776875
O	-4.76294148363286	5.9652479628711665	20.373412477687502
O	-4.14071552363286	3.178606152871167	23.0163794776875
O	-0.6772160756328602	1.838564072871167	21.7114958776875
O	2.22989514636714	0.781274122871167	24.0761564776875
O	5.44185843636714	2.715542042871167	23.0839052776875
O	7.8027603363671405	1.252808632871167	25.769826477687502
O	11.072299886367139	0.21074224187116702	24.0382281776875
O	9.757094886367138	1.249528102871167	20.5511732776875
O	12.736055186367139	1.6067002628711669	18.1465741776875
O	13.05419448636714	4.466461352871167	15.614860977687501
O	10.93532078636714	4.0032247828711665	12.439010277687501
O	12.76159008636714	2.184678072871167	9.556848137687501
O	10.31486168636714	4.225900992871167	7.3216571976875
O	9.760668086367138	7.856764992871167	8.7173790576875
O	6.36185983636714	9.350814622871166	7.473477887687499
O	5.71546855636714	12.738810052871166	5.7327720776875
O	6.00680588636714	14.802354352871166	2.5406136976875002
O	9.416722466367139	16.14417625287117	3.7189910376874997
O	10.983533086367139	12.603946152871167	4.0097529776875
O	9.196500356367139	11.569659352871167	0.7129202386874999
O	10.78658488636714	14.411762552871167	-1.1767302223125
O	14.20054148636714	13.592508252871166	0.5291986416875
O	13.89025238636714	9.865038552871166	-0.48512426231250005
O	12.797153986367139	10.922864752871167	-4.016954522312501
O	15.97531538636714	12.878402452871168	-4.1738644223125
O	18.10526858636714	9.876682552871166	-2.8329778023125
O	16.18172008636714	7.547278752871167	-5.2596061523125
O	16.96288188636714	9.683437352871167	-8.1338032923125
O	20.62968778636714	9.554628742871166	-6.9866924523125
O	20.66868008636714	5.896155942871166	-8.270890502312499
O	21.16165258636714	7.107246642871167	-11.6063662223125
O	22.58884078636714	3.796299642871167	-12.715060422312499
O	19.70954438636714	1.8769614428711667	-12.0150442223125
O	17.211055886367138	4.350765292871166	-13.5913318223125
O	19.16821138636714	4.4111181428711665	-16.428174422312498
O	19.59906338636714	0.7591099928711669	-17.0384495223125
O	16.40752408636714	-0.277665461128833	-15.9860050223125
O	18.29801228636714	-3.408776617128833	-15.0706781223125
O	16.21406778636714	-6.013964177128833	-13.7231996223125
O	17.79916628636714	-5.681163867128833	-10.254824422312499
O	19.86621408636714	-8.699750817128834	-9.4138826223125
O	18.35405008636714	-10.079200797128832	-6.4338830423125
O	20.71602258636714	-10.120173307128834	-3.4662048023125
O	20.48066408636714	-10.254991637128834	0.3075305976875
O	20.69986088636714	-6.375709647128834	0.4703654776874999
O	17.69173748636714	-6.014451437128833	-1.8912791923125
O	15.680041586367139	-7.854551187128833	0.7262397306874999
O	16.54575288636714	-5.083897387128833	3.2894437476875
O	14.741193686367138	-1.721135277128833	3.6158466176874997
O	16.25052418636714	0.768160272871167	1.2363317262875
O	16.69974218636714	4.553973182871167	2.1344604486875
O	15.514589086367138	5.1399911728711665	-1.4257837523124999
O	12.28690048636714	3.1546443428711672	-1.3159990223125
O	9.089365086367138	5.222708082871167	-2.2929571323125
O	6.12567006636714	2.7545974428711673	-2.2173275523125002
O	4.70312976636714	3.8624821728711676	1.2354403175875
O	4.88809081636714	7.638868422871166	0.2583132276875
O	2.96909692636714	6.957046712871167	-3.0585418723125
O	0.22512085236713986	5.0350127228711665	-1.1791255023125
O	-0.35519421163286014	7.879320392871167	1.4506825406875
O	0.045469904367139824	10.579107552871166	-1.2334603923125003
O	3.0843178763671397	12.196333752871167	0.6218593426874999
O	4.65064252636714	11.857188952871168	-2.8318159923125
O	2.73996688636714	12.855398452871167	-6.023744962312501
O	2.74264498636714	10.022990652871167	-8.6512127423125
O	2.75948438636714	12.785638252871166	-11.2510028223125
O	5.80310808636714	14.469658952871166	-9.581691722312499
O	7.60042775636714	11.043745152871166	-9.4618160223125
O	6.54403763636714	10.221812652871167	-13.0915424223125
O	7.82724848636714	13.535937052871168	-14.228306222312499
O	11.04517448636714	13.339726252871166	-11.9865550223125
O	11.728750686367139	9.724677752871166	-13.381776322312499
O	10.840119986367139	11.004903052871168	-16.7879273223125
O	13.17815098636714	13.927324152871167	-16.0676009223125
O	15.976849286367138	11.686682952871166	-14.5561078223125
O	15.494685486367139	8.976928802871166	-17.3080256223125
O	15.38930978636714	11.724209952871167	-19.6486092223125
O	18.479494186367138	13.169152052871167	-17.7419143223125
O	20.29212778636714	9.798018852871166	-17.7350866223125
O	18.83093678636714	8.108031432871167	-21.0065063223125
O	18.93176658636714	11.284094752871166	-22.5372309223125
O	15.28437778636714	12.228524752871166	-23.3186227223125
O	14.35379028636714	8.712424222871167	-24.5273829223125
O	10.78013928636714	8.266287452871167	-24.2541299223125
O	11.002152886367139	6.210530742871167	-21.4221547223125
O	9.71846038636714	2.7063501528711673	-21.966851122312498
O	6.56561513636714	2.1621996328711672	-20.3196186223125
O	8.762185886367138	-0.353526487228833	-18.3404857223125
O	10.49837528636714	2.666980722871167	-16.5805413223125
O	7.19252543636714	3.624966952871167	-15.0937793223125
O	6.46426512636714	-0.145829918128833	-14.5440540223125
O	5.9534887863671395	0.364704435871167	-10.8586858223125
O	3.5347634563671395	3.4230566328711673	-11.4424435223125
O	1.71888213636714	1.693681472871167	-14.3978273223125
O	1.1475855563671398	-1.564111337128833	-12.455745022312499
O	-0.3967438716328602	0.751701012871167	-9.7699675223125
O	-2.63866443363286	2.534111802871167	-12.390637222312499
O	-3.62182162363286	-0.9282667291288329	-13.8991337223125
O	-4.94204360363286	-2.255595687128833	-10.6397556223125
O	-6.83178004363286	1.091439432871167	-9.831771522312499
O	-8.44351504363286	0.934231602871167	-13.2880608223125
O	-9.421899153632861	-2.803320867128833	-12.8635051223125
O	-10.962545513632861	-2.106481557128833	-9.4378224223125
O	-12.84669361363286	1.343158572871167	-9.7557774223125
O	-16.19142011363286	-0.177660621128833	-11.0792677223125
O	-15.98094241363286	-3.621288307128833	-9.3653486223125
O	-17.41969251363286	-3.414992807128833	-5.8042767323125
O	-16.46962561363286	-7.219017177128833	-5.430770042312501
O	-12.752559413632861	-6.813429437128833	-6.5469438023125
O	-11.41011461363286	-7.966877077128833	-3.0984498623124996
O	-13.681609913632862	-11.162817847128833	-3.2235142923124998
O	-13.65796481363286	-14.493247347128833	-5.0304452923125
O	-17.55542801363286	-14.975301147128834	-4.9551501923125
O	-19.58684441363286	-12.541711947128833	-7.1691594823125
O	-16.33789051363286	-11.067386047128833	-8.7141978223125
O	-16.78158651363286	-11.224535047128834	-12.482463722312499
O	-12.93164261363286	-11.450485547128833	-13.172702122312499
O	-11.927856713632861	-13.933263147128834	-10.4278874223125
O	-11.66269401363286	-17.670430747128833	-10.8913161223125
O	-13.83262471363286	-19.682547147128833	-8.300584192312499
O	-11.300233213632861	-21.99162314712883	-6.4937183423125
O	-12.34859221363286	-24.49723644712883	-3.6626831323125004
O	-9.66316118363286	-23.331893947128833	-1.2809380123125003
O	-9.28361655363286	-25.34379464712883	1.9372968976874998
O	-10.530876293632861	-23.953021647128832	5.2450619376875
O	-7.61050030363286	-24.435294147128833	7.673700587687501
O	-7.43816501363286	-21.72083484712883	10.4354312076875
O	-4.540126783632861	-23.445607747128832	12.2179978776875
O	-2.3555534236328604	-23.417348347128833	9.0222493576875
O	-3.24773315363286	-19.73677294712883	8.3058971876875
O	-2.2044190036328604	-18.69036194712883	11.910416877687501
O	1.1320061463671398	-20.48303964712883	11.5630782776875
O	1.8682437463671397	-18.65659064712883	8.1897234776875
O	0.8725221663671398	-15.153210847128832	9.5152489576875
O	3.0833364463671398	-15.470036647128833	12.7030219776875
O	6.18233014636714	-16.79573994712883	10.8334485276875
O	5.66392360636714	-20.323377647128833	12.482050777687501
O	5.52612507636714	-22.53636134712883	9.2598822176875
O	8.70280801636714	-24.28398394712883	10.1299230676875
O	10.22106548636714	-22.909269847128833	6.7937621676875
O	12.915528786367139	-20.25533744712883	7.8741279576875005
O	12.728973786367138	-18.377443047128832	4.470353667687499
O	8.976366956367139	-17.96511444712883	4.7639577576875
O	9.185858046367139	-17.25653244712883	8.5636453376875
O	12.035071886367138	-14.586506147128834	8.1476609676875
O	9.970574586367139	-12.730870247128832	5.431722067687501
O	6.8505624863671395	-12.744136247128834	7.688390037687499
O	9.06251926636714	-11.562691747128833	10.6969356276875
O	10.58716128636714	-8.583612307128833	8.6006575676875
O	7.06019109636714	-7.6427076971288335	7.4231809676875
O	5.81832218636714	-7.512732227128834	11.1106668576875
O	8.945652366367138	-5.483265237128833	12.4594367776875
O	9.517741386367138	-2.959431257128833	9.5870503176875
O	6.12717656636714	-2.801842647128833	7.6005638876875
O	7.896407656367139	-3.509555957128833	4.2335916376875
O	9.242821776367139	-6.554466457128833	2.2031948056874997
O	10.74380158636714	-6.8289792171288335	-1.2761033323125002
O	8.249111836367138	-7.7335602571288335	-4.165307002312501
O	9.87632758636714	-11.239631647128833	-4.734971952312501
O	9.60679858636714	-11.964015047128834	-0.9871441023125
O	5.8509908263671395	-11.136688147128833	-1.4598495823125002
O	5.75172046636714	-13.671423147128833	-4.3781059823124995
O	7.37838267636714	-16.40458154712883	-2.1663799123125003
O	5.00784079636714	-16.077920247128834	0.8360819936874999
O	1.8729324263671399	-15.608830647128833	-1.4007625923125002
O	2.7300976963671397	-18.669937947128833	-3.5045970823125
O	3.34798471636714	-20.71591194712883	-0.25884926231250005
O	-0.04954462063286014	-19.732510247128833	1.2761954695875
O	-2.10306670363286	-20.301940547128833	-1.9239803823125001
O	-1.3261844286328601	-22.445218347128833	-4.9273717323124995
O	2.19715166636714	-23.51235624712883	-3.7834051323125
O	1.7245726063671398	-25.31305474712883	-0.4068802223125001
O	-1.2249390256328603	-24.591043447128833	1.9473920776874998
O	-4.146928373632861	-24.25740104712883	-0.5630978623125
O	-5.65928097363286	-21.445193047128832	1.4966648026875
O	-7.71399566363286	-18.592950847128833	-0.11858481231250018
O	-5.78682138363286	-15.486714647128833	-1.4544744323125003
O	-8.47642052363286	-13.375369647128833	0.39571921868749993
O	-6.94446797363286	-14.515032747128833	3.7924695676874998
O	-3.36132194363286	-13.500426447128833	2.6368712576875
O	-4.73265602363286	-10.089892647128833	1.4300001174874999
O	-6.2040727036328605	-9.365573197128834	5.0180760676875
O	-2.7744794936328603	-10.053319587128833	6.7207641576874995
O	-1.0030296986328602	-7.655053847128833	4.2056848176875
O	-3.73768898363286	-4.967684567128833	4.8984584376875
O	-2.72334696363286	-5.142356667128833	8.7100876776875
O	1.1282146963671398	-5.095582537128833	8.2818284476875
O	2.25236674636714	-3.658356617128833	4.8414289476875005
O	2.77569397636714	0.22802515487116698	4.6523816576875
O	2.13807136636714	0.364522918871167	0.7926977026875
O	-0.9995372256328602	-1.928984117128833	0.7425771656874999
O	-4.29138034363286	-0.242591768128833	-0.4215819523125002
O	-7.58293675363286	-2.015425717128833	-1.5585705823125
O	-7.04434388363286	-1.995123497128833	-5.3689398823125
O	-3.22460759363286	-2.848203727128833	-5.4277677123125
O	-3.26681176363286	-5.466403747128833	-2.6357748023125
O	-6.34379933363286	-7.4365902771288335	-4.0915570223125
O	-5.01129996363286	-7.221885247128833	-7.6939327723125
O	-1.4937944106328602	-8.544548157128833	-6.623049892312499
O	-3.00208775363286	-11.483206447128833	-4.6416211123124995
O	-5.35203301363286	-12.530358047128834	-7.5489588723125
O	-2.25315395363286	-12.413721547128834	-9.8175300223125
O	0.06561618436713978	-14.469097747128833	-7.457185122312499
O	-2.63863513363286	-17.133737947128832	-6.6997803623125005
O	-3.42913312363286	-17.43423024712883	-10.420986122312499
O	-7.09034418363286	-16.352268247128833	-9.6952118223125
O	-7.00336258363286	-13.520533647128833	-12.326167222312499
O	-4.68052787363286	-11.866924247128834	-14.8708588223125
O	-1.86335853363286	-14.534112647128833	-14.596423222312499
O	-2.4182499936328603	-18.19427114712883	-15.554118922312501
O	1.1014947463671398	-19.69658224712883	-15.2973154223125
O	0.3005513013671398	-21.76969014712883	-12.2492685223125
O	2.97868475636714	-24.24506124712883	-12.7826136223125
O	5.67879247636714	-21.74906234712883	-11.6277865223125
O	5.94330975636714	-22.507490947128833	-7.951425602312499
O	8.36994004636714	-20.74352924712883	-5.569915502312501
O	10.20688678636714	-23.35262244712883	-3.4385102423125002
O	10.197526186367138	-22.29697014712883	0.23655429768749991
O	13.70147628636714	-23.555743147128833	0.8300793006874999
O	15.30963678636714	-23.186644547128832	-2.4650856423125003
O	14.211863086367138	-19.72199064712883	-3.5678746323125003
O	15.594152686367138	-18.181118547128833	-0.34748375231250006
O	18.70463708636714	-20.096036547128833	-0.3387219223125
O	19.24094528636714	-18.693980947128832	-3.9089947223125
O	18.653723486367138	-15.156383147128833	-3.0234397123125
O	20.64611748636714	-15.158787247128833	0.2849743976874999
O	22.69966718636714	-18.218333547128832	0.6843160486875
O	24.13262968636714	-17.25601874712883	4.0549389476875
O	20.965820986367138	-16.927729747128833	5.4904209176875
O	22.00261438636714	-13.454059247128834	6.8314625776875
O	18.55258278636714	-12.408149847128833	6.1365080076875
O	17.276487786367138	-15.451119647128833	8.2464405976875
O	19.79768128636714	-14.693483747128834	11.1015733876875
O	18.81471528636714	-11.056843247128834	11.163696337687501
O	15.123319886367138	-11.827517547128833	11.4856176776875
O	15.116256386367139	-15.258067447128834	13.2958437776875
O	17.766332586367138	-14.725789847128834	16.1026612776875
O	16.44729208636714	-18.109976347128832	17.6727974776875
O	17.90680028636714	-19.68302324712883	14.4754906776875
O	21.17563918636714	-17.46174764712883	14.5314698776875
O	22.730326586367138	-20.27413264712883	16.1183756776875
O	21.83827128636714	-22.540322947128832	13.1354926776875
O	24.304693986367138	-22.827913147128832	10.6011595076875
O	23.702609186367138	-21.574614947128833	6.9144533076875
O	23.06893798636714	-25.10979714712883	5.9013400776875
O	20.26061808636714	-25.84306154712883	8.0681448676875
O	19.18097378636714	-22.46494764712883	8.3617979676875
O	16.74516738636714	-22.93184254712883	5.3289680876875
O	15.584499386367138	-26.414909547128833	6.5358262176875
O	16.40695108636714	-26.536357447128832	10.4285507376875
O	14.103546686367139	-29.632917147128833	11.0277057076875
O	16.46219828636714	-31.289004447128832	9.1250808376875
O	18.90862008636714	-30.14362374712883	11.954513377687501
O	18.808585086367138	-32.605034247128835	14.9449753776875
O	17.590108386367138	-32.054418147128835	18.4349020776875
O	20.42632488636714	-30.99221324712883	20.1006472776875
O	21.82877088636714	-28.571848147128833	16.9740685776875
O	19.125947086367137	-27.420550747128832	17.8828840776875
O	19.72682878636714	-27.225807747128833	21.9038802776875
O	22.83164718636714	-25.330069247128833	21.0120919776875
O	21.625143586367138	-23.24767024712883	18.5796433776875
O	19.44769528636714	-22.826959447128832	21.9611649776875
O	16.651134786367138	-23.88934384712883	19.6780514776875
O	14.60363518636714	-27.227527147128832	19.7297721776875
O	12.59587988636714	-27.97897254712883	16.5247218776875
O	9.091821466367138	-28.76910924712883	17.7711867776875
O	9.80373848636714	-26.95603484712883	21.1953149776875
O	11.760406486367138	-23.60997924712883	20.5756073776875
O	11.113597786367139	-23.48323154712883	16.6831458776875
O	8.261619556367139	-25.52274464712883	14.8675746776875
O	8.390663636367139	-28.48117914712883	12.6016742776875
O	7.6960400263671405	-27.83539984712883	8.7929331076875
O	3.94554791636714	-27.88901244712883	8.6715077976875
O	3.7774950563671403	-29.53742564712883	5.284829657687499
O	5.80938887636714	-31.52440804712883	3.0789708276875
O	6.47921573636714	-28.961240047128832	0.2525137876874999
O	6.96271825636714	-31.44883834712883	-2.2670564123125
O	3.5668356663671403	-33.23025224712883	-1.4779821323125
O	1.7234150863671398	-30.25363744712883	-1.1660355323125002
O	3.03530123636714	-28.42597084712883	-4.376912342312501
O	2.20850421636714	-31.38464984712883	-6.3015508523125
O	-1.3484588386328602	-31.785791947128832	-4.973442112312499
O	-1.87825742363286	-28.19472084712883	-5.6271218623124994
O	-0.5965951310328602	-27.968162647128832	-9.1524033223125
O	-3.22310876363286	-30.656177647128832	-9.753706422312499
O	-6.01486188363286	-28.976369547128833	-8.0908887023125
O	-5.1250970036328605	-25.80848184712883	-10.2645547223125
O	-5.10645518363286	-27.64257734712883	-13.260082922312499
O	-8.65057510363286	-29.177129247128832	-12.3954129223125
O	-9.99622533363286	-25.86809884712883	-11.9316667223125
O	-8.540838613632861	-24.22823484712883	-15.143727722312498
O	-10.21333911363286	-27.046821547128832	-16.5974468223125
O	-13.718172813632862	-26.662421247128833	-15.0643071223125
O	-13.33827081363286	-23.007947547128833	-16.2938816223125
O	-12.73226201363286	-23.48199304712883	-19.4513213223125
O	-16.18463301363286	-25.66071524712883	-18.889240822312498
O	-18.33521041363286	-22.987423647128832	-18.0087835223125
O	-16.52633301363286	-20.428179347128832	-20.7393580223125
O	-19.04023241363286	-22.09815654712883	-21.7345431223125
