C:\Protein_Ritonavir_Bodipy_docking\RitonavirBODIPY.pdb
 OpenBabel05092514143D

121126  0  0  1  0  0  0  0  0999 V2000
   20.9250   -6.6570   -1.1040 C   0  0  0  0  0  0  0  0  0  0  0  0
   20.3560   -7.3540   -0.0210 C   0  0  0  0  0  0  0  0  0  0  0  0
   20.2960   -5.5250   -1.6290 C   0  0  0  0  0  0  0  0  0  0  0  0
   19.1520   -6.8860    0.5340 C   0  0  0  0  0  0  0  0  0  0  0  0
   19.0990   -5.0710   -1.0740 C   0  0  0  0  0  0  0  0  0  0  0  0
   18.5310   -5.7480    0.0080 C   0  0  0  0  0  0  0  0  0  0  0  0
    9.9420   -7.3090   -3.7520 C   0  0  0  0  0  0  0  0  0  0  0  0
    8.9480   -5.9610   -3.6250 S   0  0  0  0  0  0  0  0  0  0  0  0
    9.1850   -8.4430   -3.4500 C   0  0  0  0  0  0  0  0  0  0  0  0
    7.5860   -6.8560   -3.1980 C   0  0  0  0  0  0  0  0  0  0  0  0
    7.8810   -8.1770   -3.1490 N   0  0  0  0  0  0  0  0  0  0  0  0
    6.2100   -6.3050   -2.8920 C   0  0  0  0  0  0  0  0  0  0  0  0
    6.1610   -4.7710   -2.9550 C   0  0  0  0  0  0  0  0  0  0  0  0
    5.1800   -6.8960   -3.8610 C   0  0  0  0  0  0  0  0  0  0  0  0
    9.7100   -9.8680   -3.4420 C   0  0  0  0  0  0  0  0  0  0  0  0
   10.7210  -10.0640   -2.3960 N   0  0  0  0  0  0  0  0  0  0  0  0
   12.0140   -9.6180   -2.5710 C   0  0  0  0  0  0  0  0  0  0  0  0
   12.9330   -9.6350   -1.5510 N   0  0  0  0  0  0  0  0  0  0  0  0
   14.2480   -9.0060   -1.6650 C   0  0  2  0  0  0  0  0  0  0  0  0
   15.3300   -9.8840   -1.0460 C   0  0  0  0  0  0  0  0  0  0  0  0
   16.4260  -10.2490   -1.7740 N   0  0  0  0  0  0  0  0  0  0  0  0
   17.5640  -10.9860   -1.2300 C   0  0  2  0  0  0  0  0  0  0  0  0
   18.8300  -10.0540   -1.3040 C   0  0  0  0  0  0  0  0  0  0  0  0
   20.1240  -10.6560   -0.6840 C   0  0  2  0  0  0  0  0  0  0  0  0
   21.3510   -9.7080   -0.4270 C   0  0  2  0  0  0  0  0  0  0  0  0
   22.4380  -10.5400    0.0980 N   0  0  0  0  0  0  0  0  0  0  0  0
   10.3200  -10.7270   -1.1600 C   0  0  0  0  0  0  0  0  0  0  0  0
   12.3420   -9.1560   -3.6570 O   0  0  0  0  0  0  0  0  0  0  0  0
   14.2170   -7.6210   -0.9570 C   0  0  0  0  0  0  0  0  0  0  0  0
   15.5660   -6.9020   -1.1020 C   0  0  0  0  0  0  0  0  0  0  0  0
   13.1140   -6.7160   -1.5360 C   0  0  0  0  0  0  0  0  0  0  0  0
   15.2330  -10.2070    0.1300 O   0  0  0  0  0  0  0  0  0  0  0  0
   20.5850  -11.6710   -1.5440 O   0  0  0  0  0  0  0  0  0  0  0  0
   21.0750   -8.5440    0.5680 C   0  0  0  0  0  0  0  0  0  0  0  0
   17.6990  -12.3490   -1.9670 C   0  0  0  0  0  0  0  0  0  0  0  0
   16.6550  -13.3860   -1.5550 C   0  0  0  0  0  0  0  0  0  0  0  0
   17.1980  -14.5540   -0.7520 C   0  0  0  0  0  0  0  0  0  0  0  0
   15.3470  -13.2050   -1.8760 C   0  0  0  0  0  0  0  0  0  0  0  0
   14.1670  -14.0910   -1.6440 C   0  0  0  0  0  0  0  0  0  0  0  0
   14.1630  -15.4190   -1.4560 C   0  0  0  0  0  0  0  0  0  0  0  0
   28.7560  -13.3770    1.4860 C   0  0  0  0  0  0  0  0  0  0  0  0
   28.4040  -12.0770    1.3150 N   0  0  0  0  0  0  0  0  0  0  0  0
   30.0040  -13.7910    1.7220 C   0  0  0  0  0  0  0  0  0  0  0  0
   29.4140  -10.8920    1.3830 B   0  0  0  0  0  0  0  0  0  0  0  0
   31.0650  -12.7840    1.8150 C   0  0  0  0  0  0  0  0  0  0  0  0
   30.8350  -11.4620    1.6740 N   0  0  0  0  0  0  0  0  0  0  0  0
   32.3930  -13.0350    2.0640 C   0  0  0  0  0  0  0  0  0  0  0  0
   33.0150  -11.8080    2.0830 C   0  0  0  0  0  0  0  0  0  0  0  0
   32.0360  -10.8510    1.8430 C   0  0  0  0  0  0  0  0  0  0  0  0
   27.6630  -14.2020    1.3860 C   0  0  0  0  0  0  0  0  0  0  0  0
   26.5890  -13.3830    1.1440 C   0  0  0  0  0  0  0  0  0  0  0  0
   27.0630  -12.0700    1.0940 C   0  0  0  0  0  0  0  0  0  0  0  0
   32.3020   -9.3960    1.8020 C   0  0  0  0  0  0  0  0  0  0  0  0
   31.3670   -8.4540    1.5710 N   0  0  0  0  0  0  0  0  0  0  0  0
   33.5390   -8.8090    2.0060 C   0  0  0  0  0  0  0  0  0  0  0  0
   32.0080   -7.2690    1.6280 C   0  0  0  0  0  0  0  0  0  0  0  0
   33.3480   -7.4530    1.8960 C   0  0  0  0  0  0  0  0  0  0  0  0
   26.2090  -10.8360    0.8170 C   0  0  0  0  0  0  0  0  0  0  0  0
   24.7240  -11.2240    0.6650 C   0  0  0  0  0  0  0  0  0  0  0  0
   23.7430  -10.1610    0.2380 C   0  0  0  0  0  0  0  0  0  0  0  0
   24.1120   -9.0260   -0.0280 O   0  0  0  0  0  0  0  0  0  0  0  0
   29.0240   -9.9870    2.4530 F   0  0  0  0  0  0  0  0  0  0  0  0
   29.4210  -10.1810    0.1140 F   0  0  0  0  0  0  0  0  0  0  0  0
   21.8630   -6.9820   -1.5360 H   0  0  0  0  0  0  0  0  0  0  0  0
   20.7430   -4.9960   -2.4600 H   0  0  0  0  0  0  0  0  0  0  0  0
   18.7000   -7.3940    1.3770 H   0  0  0  0  0  0  0  0  0  0  0  0
   18.6160   -4.1900   -1.4770 H   0  0  0  0  0  0  0  0  0  0  0  0
   17.6090   -5.3870    0.4440 H   0  0  0  0  0  0  0  0  0  0  0  0
   10.9810   -7.2610   -4.0280 H   0  0  0  0  0  0  0  0  0  0  0  0
    5.9400   -6.6100   -1.8580 H   0  0  0  0  0  0  0  0  0  0  0  0
    6.4130   -4.4060   -3.9750 H   0  0  0  0  0  0  0  0  0  0  0  0
    5.1430   -4.4070   -2.6940 H   0  0  0  0  0  0  0  0  0  0  0  0
    6.8760   -4.3320   -2.2270 H   0  0  0  0  0  0  0  0  0  0  0  0
    5.4190   -6.6100   -4.9080 H   0  0  0  0  0  0  0  0  0  0  0  0
    5.1670   -8.0040   -3.7840 H   0  0  0  0  0  0  0  0  0  0  0  0
    4.1620   -6.5230   -3.6130 H   0  0  0  0  0  0  0  0  0  0  0  0
    8.8310  -10.5190   -3.2480 H   0  0  0  0  0  0  0  0  0  0  0  0
   10.1000  -10.1750   -4.4360 H   0  0  0  0  0  0  0  0  0  0  0  0
   12.6590   -9.9610   -0.6130 H   0  0  0  0  0  0  0  0  0  0  0  0
   14.4970   -8.8120   -2.7330 H   0  0  0  0  0  0  0  0  0  0  0  0
   16.4830   -9.9570   -2.7620 H   0  0  0  0  0  0  0  0  0  0  0  0
   17.4200  -11.2140   -0.1500 H   0  0  0  0  0  0  0  0  0  0  0  0
   19.0320   -9.7310   -2.3490 H   0  0  0  0  0  0  0  0  0  0  0  0
   18.5540   -9.1590   -0.7190 H   0  0  0  0  0  0  0  0  0  0  0  0
   19.8310  -11.0720    0.3110 H   0  0  0  0  0  0  0  0  0  0  0  0
   21.6910   -9.3070   -1.4050 H   0  0  0  0  0  0  0  0  0  0  0  0
   22.2310  -11.5220    0.3370 H   0  0  0  0  0  0  0  0  0  0  0  0
   10.9290  -11.6440   -1.0110 H   0  0  0  0  0  0  0  0  0  0  0  0
   10.4440  -10.0410   -0.2970 H   0  0  0  0  0  0  0  0  0  0  0  0
    9.2520  -11.0330   -1.1730 H   0  0  0  0  0  0  0  0  0  0  0  0
   14.0050   -7.7650    0.1260 H   0  0  0  0  0  0  0  0  0  0  0  0
   15.8120   -6.7380   -2.1730 H   0  0  0  0  0  0  0  0  0  0  0  0
   15.5250   -5.9180   -0.5910 H   0  0  0  0  0  0  0  0  0  0  0  0
   16.3790   -7.4960   -0.6370 H   0  0  0  0  0  0  0  0  0  0  0  0
   13.2720   -6.5470   -2.6230 H   0  0  0  0  0  0  0  0  0  0  0  0
   12.1100   -7.1630   -1.3840 H   0  0  0  0  0  0  0  0  0  0  0  0
   13.1130   -5.7330   -1.0190 H   0  0  0  0  0  0  0  0  0  0  0  0
   20.7450  -12.4860   -0.9990 H   0  0  0  0  0  0  0  0  0  0  0  0
   22.0390   -8.1210    0.9150 H   0  0  0  0  0  0  0  0  0  0  0  0
   20.5650   -8.9430    1.4710 H   0  0  0  0  0  0  0  0  0  0  0  0
   17.7280  -12.2130   -3.0700 H   0  0  0  0  0  0  0  0  0  0  0  0
   18.6510  -12.8060   -1.6840 H   0  0  0  0  0  0  0  0  0  0  0  0
   17.8810  -15.1660   -1.3800 H   0  0  0  0  0  0  0  0  0  0  0  0
   17.7810  -14.1480    0.1020 H   0  0  0  0  0  0  0  0  0  0  0  0
   16.4480  -15.1870   -0.2640 H   0  0  0  0  0  0  0  0  0  0  0  0
   15.0840  -12.2890   -2.3880 H   0  0  0  0  0  0  0  0  0  0  0  0
   13.1950  -13.6100   -1.6960 H   0  0  0  0  0  0  0  0  0  0  0  0
   13.2160  -15.9330   -1.3270 H   0  0  0  0  0  0  0  0  0  0  0  0
   15.0440  -16.0390   -1.4720 H   0  0  0  0  0  0  0  0  0  0  0  0
   30.2320  -14.8460    1.8500 H   0  0  0  0  0  0  0  0  0  0  0  0
   32.8570  -14.0010    2.2190 H   0  0  0  0  0  0  0  0  0  0  0  0
   34.0690  -11.6400    2.2590 H   0  0  0  0  0  0  0  0  0  0  0  0
   27.6420  -15.2800    1.4790 H   0  0  0  0  0  0  0  0  0  0  0  0
   25.5740  -13.7320    1.0120 H   0  0  0  0  0  0  0  0  0  0  0  0
   34.4780   -9.3050    2.2170 H   0  0  0  0  0  0  0  0  0  0  0  0
   31.5250   -6.3130    1.4850 H   0  0  0  0  0  0  0  0  0  0  0  0
   34.1020   -6.6850    2.0010 H   0  0  0  0  0  0  0  0  0  0  0  0
   26.3120  -10.1090    1.6510 H   0  0  0  0  0  0  0  0  0  0  0  0
   26.5730  -10.3640   -0.1210 H   0  0  0  0  0  0  0  0  0  0  0  0
   24.6490  -12.0050   -0.1220 H   0  0  0  0  0  0  0  0  0  0  0  0
   24.3760  -11.6450    1.6350 H   0  0  0  0  0  0  0  0  0  0  0  0
  1  2  2  0  0  0  0
  1  3  1  0  0  0  0
  1 64  1  0  0  0  0
  2  4  1  0  0  0  0
  2 34  1  0  0  0  0
  3  5  2  0  0  0  0
  3 65  1  0  0  0  0
  4  6  2  0  0  0  0
  4 66  1  0  0  0  0
  5  6  1  0  0  0  0
  5 67  1  0  0  0  0
  6 68  1  0  0  0  0
  7  8  1  0  0  0  0
  7  9  1  0  0  0  0
  7 69  1  0  0  0  0
  8 10  1  0  0  0  0
  9 11  2  0  0  0  0
  9 15  1  0  0  0  0
 10 11  2  0  0  0  0
 10 12  1  0  0  0  0
 12 13  1  0  0  0  0
 12 14  1  0  0  0  0
 12 70  1  0  0  0  0
 13 71  1  0  0  0  0
 13 72  1  0  0  0  0
 13 73  1  0  0  0  0
 14 74  1  0  0  0  0
 14 75  1  0  0  0  0
 14 76  1  0  0  0  0
 15 16  1  0  0  0  0
 15 77  1  0  0  0  0
 15 78  1  0  0  0  0
 16 27  1  0  0  0  0
 16 17  1  0  0  0  0
 17 28  2  0  0  0  0
 17 18  1  0  0  0  0
 18 19  1  0  0  0  0
 18 79  1  0  0  0  0
 19 29  1  0  0  0  0
 19 80  1  6  0  0  0
 19 20  1  0  0  0  0
 20 32  2  0  0  0  0
 20 21  1  0  0  0  0
 21 22  1  0  0  0  0
 21 81  1  0  0  0  0
 22 35  1  0  0  0  0
 22 82  1  1  0  0  0
 22 23  1  0  0  0  0
 23 24  1  0  0  0  0
 23 83  1  0  0  0  0
 23 84  1  0  0  0  0
 24 33  1  0  0  0  0
 24 85  1  1  0  0  0
 24 25  1  0  0  0  0
 25 34  1  0  0  0  0
 25 86  1  6  0  0  0
 25 26  1  0  0  0  0
 26 60  1  0  0  0  0
 26 87  1  0  0  0  0
 27 88  1  0  0  0  0
 27 89  1  0  0  0  0
 27 90  1  0  0  0  0
 29 30  1  0  0  0  0
 29 31  1  0  0  0  0
 29 91  1  0  0  0  0
 30 92  1  0  0  0  0
 30 93  1  0  0  0  0
 30 94  1  0  0  0  0
 31 95  1  0  0  0  0
 31 96  1  0  0  0  0
 31 97  1  0  0  0  0
 33 98  1  0  0  0  0
 34 99  1  0  0  0  0
 34100  1  0  0  0  0
 35 36  1  0  0  0  0
 35101  1  0  0  0  0
 35102  1  0  0  0  0
 36 37  1  0  0  0  0
 36 38  2  0  0  0  0
 37103  1  0  0  0  0
 37104  1  0  0  0  0
 37105  1  0  0  0  0
 38 39  1  0  0  0  0
 38106  1  0  0  0  0
 39 40  2  0  0  0  0
 39107  1  0  0  0  0
 40108  1  0  0  0  0
 40109  1  0  0  0  0
 41 42  1  0  0  0  0
 41 43  1  0  0  0  0
 41 50  2  0  0  0  0
 42 44  1  0  0  0  0
 42 52  1  0  0  0  0
 43 45  1  0  0  0  0
 43110  1  0  0  0  0
 44 46  1  0  0  0  0
 44 62  1  0  0  0  0
 44 63  1  0  0  0  0
 45 46  1  0  0  0  0
 45 47  2  0  0  0  0
 46 49  1  0  0  0  0
 47 48  1  0  0  0  0
 47111  1  0  0  0  0
 48 49  2  0  0  0  0
 48112  1  0  0  0  0
 49 53  1  0  0  0  0
 50 51  1  0  0  0  0
 50113  1  0  0  0  0
 51 52  2  0  0  0  0
 51114  1  0  0  0  0
 52 58  1  0  0  0  0
 53 54  2  0  0  0  0
 53 55  1  0  0  0  0
 54 56  2  0  0  0  0
 55 57  2  0  0  0  0
 55115  1  0  0  0  0
 56 57  1  0  0  0  0
 56116  1  0  0  0  0
 57117  1  0  0  0  0
 58 59  1  0  0  0  0
 58118  1  0  0  0  0
 58119  1  0  0  0  0
 59 60  1  0  0  0  0
 59120  1  0  0  0  0
 59121  1  0  0  0  0
 60 61  2  0  0  0  0
M  END
$$$$
