23

O	-2.29718222106	-8.3955696934	2.8037079600999997
O	0.24805741894000022	-7.606191643400001	2.9103514501
O	0.011817288940000115	-6.377202963400001	5.9908392401
O	-1.0112218780599997	-7.555305673400001	5.2276889151
O	-0.2856444040599998	-9.7289165034	3.9426407551
O	-2.17327552106	-7.258103503400001	5.8686392101
O	-2.73984115106	-7.231715943400001	8.3413034301
O	-2.90368944106	-6.2337270824000015	9.2642865701
O	-2.16997017106	-5.049852274400001	9.208525930099999
O	-1.0167020640599997	-5.143569107400001	8.428967420100001
O	-1.00206505306	-6.0165538014000015	7.3460506901
O	-1.96146401106	-7.023079643400001	7.1963663701
O	-0.8173819860599998	-8.3603830634	3.6737449920999996
O	-0.7037753210599998	4.0141044066	3.5411788791
O	7.826106318940001	3.8342618365999996	9.3500724501
O	0.29217323894000025	5.343834576599999	7.586686440099999
O	-1.6679973260599998	1.727890036599999	-0.6366693998999997
O	-3.1063093110599995	-1.4194175434000011	0.9267542601000001
O	-8.24338270106	-4.358418209400002	-4.392531689899999
O	-2.6578247710599996	-0.7464442634000008	-4.9564119798999995
O	-1.18694924546	-3.562514393400001	-2.9566408199000005
O	1.31584744894	-5.652526883400001	-7.8089569898999995
O	8.13211166894	0.819230436599999	-0.6534811499000002
