14

O	38.88711325619696	36.927424194226596	29.906874776998986
O	38.30043786241883	35.99322772449385	29.121756652076837
O	37.53818873000963	35.069926106214496	29.701831454112035
O	37.30626835378494	35.1539415985527	31.005236847819702
O	37.95825188789038	36.027838409616564	31.831713331796216
O	38.63426138199522	37.06016855134334	31.22284607022085
O	37.34547653048079	35.97152833296496	33.01652055904356
O	36.25005497689268	35.20988872792988	32.90049527303996
O	36.436958718314756	34.51134971244488	31.751678112664447
O	39.63525509152093	37.97179389474609	29.26537016282219
O	38.1063096703715	36.131481082410765	27.875538903214203
O	36.80967098906411	34.09714979176786	28.932342772641444
O	38.96655462800357	38.0088961520625	31.957853506187377
O	37.786154082740765	36.7150500267191	34.194969440346405
