52

O	-0.8803725001315788	2.8571468712000003	4.4510918413
O	-1.6310276721315788	2.2683162312	3.4903036213000007
O	-1.047442332131579	1.9569778912000002	2.335965491300001
O	0.2588797698684212	2.1465088912	2.204357883300001
O	1.0182327998684213	2.8220319812000003	3.120264201300001
O	0.4530762698684212	3.0208071412	4.3590065513
O	2.294307739868421	2.6534569112	2.7658240913000007
O	2.3498450198684213	1.7748192712000002	1.7566492783000007
O	1.0832077898684211	1.7287574482	1.270668071300001
O	-1.4943397441315787	3.1090349512	5.7244923913
O	-2.719830160131579	1.6563409152	3.713550031300001
O	-1.7505637001315788	1.2511250342	1.2984027173000008
O	1.2317247998684213	3.3560922612	5.2711684613
O	3.4191889598684213	3.2769051712	3.459876901300001
O	4.792170319868421	-1.9873874587999998	-8.4196265687
O	1.8519545398684212	-3.8176816787999996	-9.8776489987
O	10.698041979868421	-3.4302142687999995	-7.0026257987000005
O	9.455820779868422	3.8951460212	-4.7421779286999985
O	7.823021439868421	0.5385607232	-3.769491458699999
O	4.406852559868422	2.0475439612	-3.0379148286999995
O	1.3030670598684213	0.6509777796	-4.6916155087
O	-1.6831597811315788	3.0159916312000004	-4.698449698699999
O	-0.11498527913157874	5.2037924912	-2.065692058699999
O	1.2360694398684213	8.704597701199999	-2.039629718699999
O	4.429687509868422	9.5008528212	-0.12404099869999907
O	5.343775219868421	13.1817679112	-0.40799928869999924
O	-8.793175790131578	6.1367642512	-2.6571065086999988
O	-7.611428190131579	9.3648787412	-0.942431078699999
O	-4.236504540131579	8.0901975512	0.2548558313000009
O	-3.2201940501315787	7.5410074312	-3.373592438699999
O	-3.9969222401315787	11.149388311200001	-4.272130948699999
O	-0.9478779021315787	13.2905234112	-4.999955398699999
O	-0.18924212213157876	-6.4526838888	-3.9116239386999996
O	-1.1006958351315788	-6.8916014688	-0.24256987869999924
O	-3.699919860131579	-4.2118090187999995	0.6531696093000008
O	-6.487709330131579	-3.8179805687999995	3.1643916613000007
O	-8.76135976013158	-2.7399366287999998	0.32505986130000086
O	-7.956945260131579	-5.9199174887999995	-1.6593036786999993
O	-6.572286090131579	-10.7722295888	1.5024988049000008
O	3.6685985498684213	-5.2993159688	0.8793058643000008
O	5.046697259868421	-1.7622391287999997	0.6695919973000009
O	7.884448389868422	-1.6457585687999998	3.2524248613000006
O	6.280830489868421	0.9724046252	5.447248641300001
O	2.763177859868421	-0.5125926687999999	5.3217949213
O	2.590113639868421	-2.0819158187999998	8.7652558413
O	-0.8757151021315788	-3.6239542287999997	8.4458175813
O	0.0354319708684212	-5.1894028688	5.088186571300001
O	3.115585279868421	-6.7526950787999995	6.645353311300001
O	0.9953373498684213	-8.0399027088	9.5222463213
O	-1.3530844251315788	-9.7359256888	7.028974451300002
O	-10.636598230131579	-1.4546867087999997	-7.128693308699999
O	-5.482877850131579	-7.1445638688	13.0981439013
