14

O	38.88712395959963	36.927427380352434	29.906896635381795
O	38.300431125163186	35.99325277327781	29.121769856406832
O	37.53820629717903	35.069925987415125	29.701835972785545
O	37.306270920943724	35.15394340345974	31.005241886204605
O	37.958246094212086	36.027838155857	31.83172495988999
O	38.634288803470355	37.06015017667947	31.222871098133584
O	37.34546010935398	35.971541695439534	33.01651905392633
O	36.250053715894985	35.20988512517864	32.90049732240105
O	36.43695300667759	34.511353612022546	31.75167696170635
O	39.63523022136018	37.97182460501479	29.265396338811822
O	38.10632108570486	36.13149537791665	27.875549374922816
O	36.80968129399571	34.097155950862934	28.93234481035714
O	38.966586356747015	38.008878977491214	31.957886235411095
O	37.78614413664381	36.71503534807513	34.194977420253885
