524

O	-9.318761872628173	-5.782229583268288	7.07784209023734
O	-10.350077162628173	-4.383994183268288	2.109767401237339
O	-10.050523982628173	-4.162851003268288	4.300185220237339
O	-11.272839372628173	-5.852730023268288	4.107090890237339
O	-11.364510572628173	-4.830633473268287	4.71948805023734
O	-11.033311272628174	-6.857719833268288	4.685124580237339
O	-10.587997202628173	-5.870807703268288	6.506235280237339
O	-10.812028872628172	-6.833914573268288	5.95242518023734
O	-11.341883172628172	-4.982955073268288	6.01401453023734
O	-9.914895312628174	-5.312964473268288	8.152848740237339
O	-8.934138452628172	-4.929978133268288	8.93096798023734
O	-8.179919062628173	-4.054363313268288	9.04169933023734
O	-7.9633367026281725	-3.064263693268288	8.08231357023734
O	-9.208828042628173	-3.219700933268288	7.65604135023734
O	-7.476549452628172	-3.750857073268288	7.1099957302373396
O	-7.634854082628172	-3.1761045932682883	5.95323038023734
O	-9.663966632628172	-2.973755773268288	6.527940860237339
O	-8.821133552628172	-2.9330307932682884	5.6465523202373396
O	-9.545359872628174	-4.237236543268288	3.2093699202373394
O	-9.135770282628172	-5.451543283268288	3.6181428902373396
O	-8.533718982628173	-5.347521313268288	4.6489441002373395
O	-8.400259562628172	-5.931957803268288	5.873761830237339
O	-10.476967822628174	-4.972881453268288	7.2187942002373395
O	-10.382463872628174	-6.3610636032682875	2.3006627502373393
O	-10.382463872628174	-6.3610636032682875	2.3006627502373393
O	-8.923220192628174	-4.210483213268288	4.8085219202373395
O	-11.519380372628174	-5.639880813268288	2.4349050002373396
O	14.044802027371826	-33.354534533268286	6.25732834023734
O	17.486912527371828	-32.74682153326829	6.3918306002373395
O	18.947729927371828	-29.29863903326829	5.39249919023734
O	20.284517227371825	-30.30061223326829	2.2847073302373393
O	20.277630027371828	-26.847981133268288	0.9934000892373394
O	16.872990627371827	-27.62084153326829	0.5355530982373393
O	16.990529627371828	-30.657458033268288	-1.5077178897626606
O	19.60557752737183	-29.04461463326829	-3.53778477976266
O	20.215698027371825	-25.420686833268288	-4.04376999976266
O	23.446634227371828	-23.84417683326829	-3.8901603197626606
O	24.772634627371826	-21.84435663326829	-6.73412916976266
O	24.44077842737183	-18.16705883326829	-6.54182355976266
O	26.955301427371825	-15.819668633268288	-5.30139412976266
O	26.503306627371828	-12.157877333268289	-5.936078659762661
O	27.024100427371827	-10.071949063268288	-2.89368272976266
O	28.72476272737183	-6.951996063268288	-3.8808059197626603
O	28.934876227371827	-5.639174183268287	-0.42906211976266073
O	26.77056182737183	-5.631651403268288	2.2749218902373394
O	27.459170427371827	-8.667185113268287	4.3842373102373395
O	28.425693627371828	-7.7567251232682874	8.016971750237339
O	25.80881292737183	-9.593858303268288	9.384168410237338
O	23.714972227371828	-7.276416433268288	7.380002860237339
O	23.48147622737183	-3.9423786232682883	9.31733730023734
O	23.170780027371826	-5.180782373268288	12.865927340237338
O	24.550166027371827	-3.4798754732682884	15.902827640237339
O	23.889652827371826	-0.1558111702682881	14.304011240237338
O	25.862838027371826	-0.5299697209282881	11.253291740237339
O	23.378651727371828	0.2798695327317119	8.81190078023734
O	24.112196327371826	0.2950803357317119	5.168829700237339
O	22.178513227371827	-0.9648227832682881	2.327641540237339
O	21.677701927371828	1.2306682167317118	-0.6168034997626606
O	22.951525827371828	0.15688128073171193	-3.9196171797626604
O	19.884599527371826	-0.917117604268288	-5.56625219976266
O	19.095010227371827	-2.7610830132682884	-2.3741572497626606
O	22.067222327371827	-4.741181383268287	-2.557051219762661
O	21.26774362737183	-5.474530683268288	-6.20379009976266
O	18.042778227371826	-6.5616588732682875	-5.20707037976266
O	19.521285027371828	-8.952851453268288	-2.5889508497626608
O	21.538591727371827	-10.423864163268288	-5.14505657976266
O	18.747288027371827	-10.913994533268287	-7.478726959762661
O	16.936042727371827	-12.744408833268288	-4.79700400976266
O	19.709408927371825	-14.856418433268288	-3.88866888976266
O	20.044498027371827	-15.698768233268288	-7.54235728976266
O	16.608134327371825	-16.72204123326829	-7.98041371976266
O	16.823166027371826	-18.79772333326829	-4.80562202976266
O	19.48719832737183	-20.71488953326829	-5.9436933097626605
O	17.547192227371827	-21.53613733326829	-9.166219759762662
O	14.876279027371828	-22.85964813326829	-7.195808619762661
O	12.835612327371827	-20.19150383326829	-8.590275849762662
O	10.503741827371828	-18.396470133268288	-6.51281627976266
O	10.431740827371828	-14.704783533268287	-7.1441222697626605
O	8.367611957371826	-11.575761333268288	-7.07807668976266
O	9.860597527371826	-8.394071523268288	-5.6697992597626605
O	7.806545817371827	-5.5509753832682875	-7.236611009762661
O	10.020858527371827	-2.492703183268288	-6.55555544976266
O	8.277673037371827	0.911599776731712	-6.296413809762661
O	7.087363217371827	1.696525366731712	-2.724721829762661
O	9.812469127371827	3.204298126731712	-0.5179007697626608
O	12.761935727371828	1.4499004967317117	-2.0763452197626604
O	13.417509127371828	-0.7110532392682881	1.0120472852373394
O	11.775464127371826	-4.083018123268288	0.01475604023733923
O	11.609371227371827	-5.076322283268288	3.6432831602373392
O	15.183345427371828	-4.557319683268288	4.30691170023734
O	15.966196227371828	-6.486762223268288	1.1296337865373394
O	13.940775627371828	-9.445936563268289	2.2910999102373393
O	15.445379627371828	-9.442562913268288	5.804589860237339
O	18.764419027371826	-9.135698203268287	4.387338640237339
O	17.97627032737183	-12.054457633268287	2.1437748272373396
O	16.950346227371828	-14.165646333268288	5.152368550237339
O	19.961807927371826	-13.150226033268288	6.9951066302373395
O	21.813464427371827	-14.177583233268289	3.9633966102373392
O	20.153041827371826	-17.62697353326829	4.0417656302373395
O	20.709881527371827	-17.96330493326829	7.78244004023734
O	24.188929527371826	-17.09355253326829	7.880714590237339
O	25.154831527371826	-18.14088553326829	4.490408370237339
O	23.151104027371826	-21.25231543326829	3.8317200602373394
O	22.623596127371826	-22.11872033326829	7.51355182023734
O	19.221563327371825	-22.25343873326829	6.79567605023734
O	18.080632027371827	-21.67301853326829	10.323721990237338
O	14.514120827371826	-21.948625533268288	9.340562500237338
O	11.659930227371827	-22.31721343326829	9.669934810237338
O	11.049276927371826	-19.02606363326829	7.86885485023734
O	7.523366797371827	-17.96964993326829	7.60628805023734
O	6.768593747371828	-14.310871233268287	6.9740103302373395
O	3.1999761173718277	-13.379073233268288	6.377377270237339
O	2.7312763473718276	-9.629196093268288	6.92523676023734
O	-0.16399413662817242	-7.210408783268288	7.50193290023734
O	-0.8391510786281724	-6.199262693268288	11.169009690237338
O	0.17970558137182757	-2.5092241732682883	10.400696860237339
O	3.6876830673718275	-3.369252313268288	9.186440820237339
O	4.303229387371827	-6.064938693268288	11.912832440237338
O	5.914072117371827	-3.6428729832682882	14.42855804023734
O	8.052164887371827	-2.1291429432682882	11.629287640237338
O	9.130702717371827	-5.672070403268288	10.57308201023734
O	9.940011627371828	-6.535553553268287	14.23550204023734
O	12.018316827371827	-3.395208893268288	14.612836540237339
O	13.699970627371828	-3.9221113032682884	11.262160540237339
O	14.361980827371827	-7.678755893268288	12.060789540237339
O	15.728076027371827	-6.721611963268288	15.50008444023734
O	17.742257227371827	-4.013033903268288	13.860274140237339
O	18.916678927371827	-5.889370563268288	10.70491872023734
O	18.761146727371827	-9.519472243268288	11.99468734023734
O	19.430204527371828	-9.478723643268287	15.769406640237339
O	20.735428527371827	-12.926054433268288	15.681955740237338
O	17.758481427371827	-14.509607033268288	14.40695434023734
O	15.178508127371828	-15.461553933268288	16.84654794023734
O	12.100653927371827	-13.848980233268287	15.490887840237338
O	8.930120477371828	-14.899276433268287	17.181442840237338
O	5.835631767371828	-13.006263033268288	16.69131864023734
O	2.8977319573718274	-15.434285333268289	16.38318474023734
O	0.15713873837182757	-13.209552333268288	17.57205034023734
O	-2.4951359826281725	-13.425108033268287	20.336986340237342
O	-5.401193242628173	-15.340025933268288	21.89743684023734
O	-5.614901562628173	-19.16679663326829	21.76777854023734
O	-3.9642372626281723	-19.11678343326829	25.27620224023734
O	-1.0948134676281724	-16.79293993326829	24.22636324023734
O	-0.7242386013281724	-19.04019123326829	21.12160554023734
O	-0.8656738226281724	-22.189054933268288	23.10326584023734
O	1.7576976773718274	-20.48637663326829	25.32028744023734
O	3.8662565573718273	-19.68346683326829	22.32050714023734
O	3.2582344073718277	-23.25685863326829	21.07600884023734
O	4.195660297371827	-24.52826033326829	24.33302644023734
O	7.096258267371828	-22.16100243326829	25.18498964023734
O	8.550304617371827	-20.79766113326829	22.06140754023734
O	7.6767729973718275	-23.47836953326829	19.39078224023734
O	9.151533037371827	-26.62613983326829	20.22714704023734
O	11.728647927371828	-27.13012333326829	22.38839124023734
O	12.771488827371828	-31.54510873326829	20.739044340237342
O	10.148975827371826	-31.115566733268288	18.79800464023734
O	12.895611627371828	-28.59093863326829	17.22787634023734
O	11.845603127371827	-25.286797833268288	16.57386574023734
O	13.297107527371827	-22.54146853326829	18.90525874023734
O	12.636975927371827	-19.99065203326829	16.48283354023734
O	14.075991927371827	-19.08160153326829	13.156005740237338
O	11.655467527371828	-16.58474303326829	11.892801840237338
O	7.992644507371827	-16.77458433326829	12.470358340237338
O	6.030435117371827	-13.590513733268288	11.933558640237338
O	2.3481354173718274	-14.150390133268287	11.435091740237338
O	-0.6661012170281724	-12.330471333268287	10.035478980237338
O	-3.0128001126281725	-13.506635733268288	7.1366787802373395
O	-5.857254982628172	-14.156703133268287	9.645903720237339
O	-3.9673276126281722	-16.31971853326829	12.13226444023734
O	-2.5961410326281724	-18.33655413326829	9.292062530237338
O	-6.043363992628173	-19.47159013326829	8.161783600237339
O	-7.157884072628173	-20.40572013326829	11.789212740237339
O	-4.165675822628172	-22.50625143326829	12.51540604023734
O	-3.7572735926281724	-24.07671203326829	9.02969241023734
O	-3.5474147726281724	-27.63956923326829	10.428586080237338
O	-0.7689737974281724	-26.77792193326829	12.792400140237339
O	1.2985625573718276	-24.45023973326829	10.561823760237338
O	0.6452251773718276	-26.820087133268288	7.540698830237339
O	2.2181207173718276	-29.66152773326829	9.327631550237339
O	5.515911227371827	-27.88959063326829	9.18563224023734
O	7.678266187371827	-27.93436033326829	6.195277950237339
O	8.719946567371828	-24.387723733268288	5.644951350237339
O	11.964231827371828	-23.447450233268288	4.15449780023734
O	10.977304327371828	-20.01290893326829	3.095411920237339
O	7.702519087371828	-18.37734593326829	2.738807630237339
O	7.5465570373718265	-14.595804933268287	2.3020891102373393
O	4.372212837371828	-12.818427233268288	1.6936487502373394
O	4.268562477371827	-9.008834153268287	2.1354029402373396
O	1.7852441973718274	-6.9519158832682875	-0.11382700976266058
O	1.2300161473718276	-10.016996433268288	-2.3690827497626605
O	-1.4203919596281724	-8.074558423268288	-4.28604026976266
O	-3.8011068526281724	-9.979204103268287	-1.7332983397626605
O	-3.1283236326281725	-13.278300433268289	-3.6002772697626604
O	-4.588258412628172	-11.900059733268288	-6.925598709762661
O	-7.497923272628173	-14.331927433268287	-6.81189436976266
O	-6.830776122628173	-18.09664833326829	-7.31201298976266
O	-10.237072742628174	-18.97128283326829	-5.856917049762661
O	-9.277488942628173	-17.38134573326829	-2.5479016197626603
O	-9.010234402628173	-19.72703733326829	0.6246271742373394
O	-5.719154532628172	-17.94080493326829	1.4742178772373393
O	-4.322522532628172	-18.86665603326829	-1.9625483197626605
O	-5.4447133026281715	-22.59269993326829	-1.5689229297626606
O	-4.127894202628172	-22.89260333326829	1.9828359892373393
O	-0.7373774174281724	-21.37234583326829	1.1884287083793392
O	-0.3568992976281724	-23.519097933268288	-1.9419833797626607
O	-0.9810534336281724	-26.61015353326829	0.3092395652373393
O	1.8797059173718274	-25.54431413326829	2.5443050202373394
O	4.927623127371827	-27.36829983326829	1.7277663602373394
O	7.594022847371827	-24.782412133268288	1.0117855772373394
O	10.832483727371827	-24.79574323326829	-0.7263603897626607
O	11.015563427371827	-21.14942253326829	-1.7045181897626607
O	8.480337227371827	-18.50241263326829	-2.0108597897626606
O	8.935727117371828	-14.706230833268288	-2.1785207297626608
O	6.213365497371827	-12.293356533268287	-3.04414666976266
O	6.687040757371827	-8.624964733268287	-2.0307776297626603
O	4.601221367371828	-6.052983583268288	-3.8322239097626607
O	4.879894337371828	-2.320273313268288	-4.93837593976266
O	2.0870152373718276	-2.734599093268288	-7.48755041976266
O	2.3635579273718275	-6.090568903268288	-9.149048359762661
O	-0.4338414176281724	-5.3580803932682874	-11.74514635976266
O	-3.5849093726281724	-3.312453413268288	-11.273177059762661
O	-6.107581232628172	-4.800307203268288	-13.770169559762662
O	-5.824491752628173	-8.271536573268289	-15.53432755976266
O	-3.5156236026281724	-10.830708033268287	-16.99379535976266
O	-5.417986872628173	-13.338801033268288	-14.929062059762662
O	-3.9572137726281724	-11.763208233268287	-11.826747459762661
O	-0.48453623562817244	-11.975343933268288	-13.077838259762661
O	-1.1104558426281725	-15.678233333268288	-13.81347245976266
O	-2.3425564026281727	-16.35777953326829	-10.378560559762661
O	0.8410219173718276	-14.859170433268288	-8.853382559762661
O	2.9642189273718276	-16.87355223326829	-11.185650859762662
O	0.9954908173718275	-19.99236873326829	-10.550088259762662
O	1.5927884073718275	-19.47011813326829	-6.866460029762661
O	5.296948527371828	-19.14218453326829	-7.19696215976266
O	5.441659837371828	-22.09747573326829	-9.521334459762661
O	2.4919591773718275	-24.37973073326829	-9.63849835976266
O	4.066524687371828	-26.80693663326829	-11.837614459762662
O	4.952403997371828	-24.34096873326829	-14.660623059762662
O	1.7993293073718277	-22.53773413326829	-14.737737259762662
O	-0.8986944256281724	-25.22858523326829	-14.216774259762662
O	-3.7706592726281722	-23.92523133326829	-16.213012359762658
O	-5.178070832628173	-20.46052993326829	-16.78849535976266
O	-6.830031372628172	-21.48094363326829	-19.97893615976266
O	-3.4297163426281725	-22.32570463326829	-21.166887059762658
O	-1.8475170926281725	-19.23450793326829	-20.07977995976266
O	-4.7473524526281725	-17.16326403326829	-21.57062205976266
O	-4.622973142628172	-18.76613303326829	-24.59644265976266
O	-0.8616411026281724	-18.14577833326829	-24.69218295976266
O	-0.7277911320281725	-14.617207133268288	-23.78000235976266
O	-4.406953382628172	-13.405362033268288	-24.03910885976266
O	-5.190805592628173	-13.373719333268287	-27.46508045976266
O	-2.3606056026281728	-11.086786533268288	-28.474166259762658
O	-2.470245362628172	-7.818793943268288	-26.80649355976266
O	0.8678434473718275	-6.783306453268287	-27.98056315976266
O	2.7252746073718277	-9.866573133268288	-28.74251085976266
O	1.5451285473718275	-11.859012333268288	-26.16014275976266
O	2.9132153573718274	-9.363507323268287	-23.77160835976266
O	6.330597497371828	-9.225584063268288	-24.828646659762658
O	6.549469897371827	-12.968208533268287	-24.49505845976266
O	5.213557687371827	-12.815996533268288	-21.41318565976266
O	7.746062457371828	-10.162496953268288	-20.392419559762658
O	10.475375827371828	-12.405324633268288	-21.12204205976266
O	9.049636177371827	-15.267228533268288	-19.31714525976266
O	8.602672227371826	-13.097137733268287	-16.45793165976266
O	11.931897727371828	-11.382885633268288	-16.25375505976266
O	13.450025127371827	-14.104468333268288	-14.018343259762661
O	10.675991327371827	-14.193853333268288	-11.716455159762662
O	9.838039827371826	-10.509528783268287	-11.446707859762661
O	11.989832927371827	-7.689633793268288	-10.239168759762661
O	10.686323627371827	-4.132273323268288	-10.562517359762662
O	12.495788427371828	-0.8027230972682882	-10.14813095976266
O	11.169662227371827	2.729034026731712	-10.196143359762662
O	12.354980627371827	5.574863286731712	-7.857793149762661
O	13.077905027371827	7.641066476731712	-10.84791305976266
O	15.424990127371828	4.836473986731712	-11.94736175976266
O	17.16070222737183	4.070172786731712	-8.719769359762662
O	17.12473152737183	7.102968446731713	-6.58666464976266
O	18.414333527371827	10.131155566731712	-8.094022089762662
O	18.274119627371828	12.083168766731712	-4.83637179976266
O	14.684276727371827	12.385990366731713	-4.730342399762661
O	13.016743327371827	15.636668666731714	-5.6760527097626605
O	10.624155527371828	15.714875866731711	-8.57357121976266
O	7.029901607371828	15.59036526673171	-8.015098459762662
O	4.594459667371828	17.72263486673171	-9.988320259762661
O	1.1366219773718276	16.666659166731712	-10.428950059762661
O	-1.6688783326281724	19.18032516673171	-11.261689959762661
O	-5.262119202628172	18.42470766673171	-11.98234485976266
O	-7.589565422628173	21.24781536673171	-10.76491745976266
O	-10.984137572628173	21.13776826673171	-12.436347359762662
O	-13.770079872628173	23.056199766731712	-10.529422259762661
O	-17.467635472628174	23.761084966731712	-10.93832225976266
O	-20.236650072628173	22.74024846673171	-8.720674539762662
O	-21.850001372628174	25.03131446673171	-6.185232469762661
O	-25.47132987262817	25.76905076673171	-6.558023119762661
O	-26.629857472628174	23.76025586673171	-3.8363239497626607
O	-24.582670772628173	21.17030216673171	-5.49948175976266
O	-26.082592672628174	21.32816676673171	-8.80048376976266
O	-29.504328972628173	21.11641066673171	-7.18981227976266
O	-28.925404572628175	18.31534356673171	-5.270226219762661
O	-27.071511372628173	16.88835366673171	-8.285559319762662
O	-30.098549872628173	17.03395726673171	-10.31596505976266
O	-32.37750267262817	15.744460366731714	-7.60182798976266
O	-30.32855337262817	12.963702666731713	-7.490874009762661
O	-30.18188247262817	12.308730566731713	-11.257122959762661
O	-33.86878397262817	12.298929466731712	-11.273603959762662
O	-34.294168572628166	10.177130466731713	-8.47110353976266
O	-36.26712907262817	12.576210466731713	-6.629594609762661
O	-35.59674837262817	11.229432466731712	-3.3674896397626606
O	-38.54959407262817	12.278996366731713	-1.6284761197626605
O	-37.18798027262817	15.748001766731713	-1.9930300097626608
O	-33.96302927262817	15.131934666731713	-0.7827608797626606
O	-35.60774637262817	13.262000966731712	2.1650523942373394
O	-37.70366567262817	15.781823066731713	3.2013014602373397
O	-36.36380727262817	16.76224526673171	6.66282967023734
O	-33.97831037262817	14.260706266731713	7.20618673023734
O	-35.71130087262817	11.367150066731712	9.188248450237339
O	-33.86233557262817	9.107639526731711	6.97105587023734
O	-34.92119007262817	6.107455046731713	4.67027579023734
O	-35.22985957262817	6.618434786731712	0.8674169952373394
O	-33.49859977262817	3.4751938767317117	0.5786775322373393
O	-30.002039172628173	5.432115726731713	0.6127883642373393
O	-30.29750887262817	6.659416056731712	-2.9008239397626605
O	-30.122786772628174	3.266400236731712	-4.76538952976266
O	-26.515201472628174	4.297259096731712	-5.7519197997626605
O	-27.013931572628174	7.293807226731713	-7.78938414976266
O	-23.331008072628173	7.3887537267317125	-8.524824969762662
O	-22.359560672628174	7.681050916731712	-4.796676159762661
O	-24.850712772628174	10.377825266731712	-4.14952593976266
O	-23.389881672628174	12.221976066731711	-7.128420029762661
O	-19.926480172628175	11.957693666731712	-5.640907379762661
O	-21.211619572628173	13.197729466731712	-2.2420517997626606
O	-22.801294572628173	16.01832086673171	-3.90280480976266
O	-19.561011372628172	16.80738096673171	-5.85961334976266
O	-17.544519672628173	16.84474456673171	-2.6297942497626607
O	-19.980235572628175	18.67362276673171	-0.38008530976266064
O	-23.808188372628173	19.24396096673171	0.0573700002373394
O	-23.717900172628173	18.66839186673171	3.7899382502373395
O	-23.00342747262817	15.231375266731712	3.0229417002373395
O	-26.457349172628174	14.806966366731713	1.6028233452373393
O	-28.277994772628173	17.03601386673171	3.8676593202373395
O	-26.709464072628172	18.00684596673171	7.0582020102373395
O	-27.618669772628174	21.155891066731712	8.35102844023734
O	-30.326743872628175	20.62867866673171	11.085433530237339
O	-28.492976372628174	20.64456746673171	14.639721540237339
O	-30.428505772628174	23.07527706673171	15.460079140237339
O	-29.47050967262817	25.34667976673171	12.528066440237339
O	-26.307787672628173	26.921410866731712	13.502453040237338
O	-25.80807667262817	27.90594866673171	17.21605154023734
O	-22.582836972628172	29.52997466673171	16.026906840237338
O	-19.389940572628173	28.74890726673171	14.82127644023734
O	-18.80167357262817	31.00857256673171	12.091494840237338
O	-22.08446337262817	30.46701916673171	10.53084312023734
O	-21.659981872628173	27.53863536673171	10.342363350237338
O	-18.174558772628174	28.20201596673171	8.53557151023734
O	-19.394034372628173	29.920078666731712	5.830998000237339
O	-22.236431172628173	27.852494066731712	5.117299020237339
O	-19.899286272628174	25.40720466673171	4.984718540237339
O	-17.496604972628173	26.86810536673171	2.3874583102373395
O	-20.228022772628172	27.73215016673171	0.20457929023733934
O	-21.937830072628174	24.71092376673171	0.07390135023733935
O	-19.062290472628174	23.22653106673171	-2.021048939762661
O	-17.188507472628174	24.14651726673171	-5.08364026976266
O	-14.117155372628172	22.29402096673171	-4.149566759762661
O	-14.115383572628172	23.79477786673171	-0.6284289097626607
O	-14.195750572628173	27.00164076673171	-1.9207520097626605
O	-11.005286072628174	26.27800366673171	-3.97098963976266
O	-9.498616302628173	24.52763666673171	-1.2316910497626605
O	-10.175897942628174	27.37209826673171	1.1598191697373392
O	-8.330398722628173	29.40626806673171	-1.1452060797626606
O	-5.460445402628173	27.05381056673171	-1.8031789797626605
O	-4.963218862628173	26.488996366731712	1.9388793522373393
O	-4.943305142628173	29.87184046673171	2.9211768202373394
O	-2.1919335026281725	30.23981766673171	0.3702215582373394
O	-0.1798616506281724	27.387334166731712	1.2452518822373393
O	-0.3561770386281724	28.35136276673171	4.909746760237339
O	0.9411220373718276	31.34557276673171	4.28131231023734
O	3.8575296373718273	29.66737646673171	2.3747961902373396
O	4.539387747371828	27.64672656673171	5.340538490237339
O	4.056442197371828	24.75520526673171	3.202632930237339
O	3.0506272573718274	21.87195636673171	4.9529153502373395
O	0.06803250737182753	20.43462396673171	3.340447780237339
O	-1.2766841046281723	17.02471606673171	3.213264510237339
O	-4.986416952628172	16.77423696673171	2.3658777802373394
O	-6.204165892628172	13.410973066731712	1.2338061109373393
O	-9.901362432628172	12.540053466731711	1.0337635892373394
O	-11.692471772628172	9.300902406731712	0.4620054262373393
O	-14.852875572628173	10.327892066731712	2.6045685602373396
O	-14.223979572628172	10.560186766731713	6.48553801023734
O	-17.425625272628174	12.683622066731711	6.7365401702373395
O	-15.733872472628173	15.057360766731712	4.291751350237339
O	-12.630589672628172	15.171970666731712	6.61728384023734
O	-15.062400172628173	16.13580186673171	9.558721660237339
O	-16.30907167262817	18.861630266731712	7.428484120237339
O	-12.694669872628173	19.89997686673171	6.53247704023734
O	-11.681253872628172	19.648935266731712	10.224917250237338
O	-14.592292772628173	21.75543486673171	11.217930140237339
O	-13.474983172628173	24.04427906673171	8.412739140237338
O	-9.848275472628172	24.11269866673171	9.63326535023734
O	-11.077197472628173	24.59342856673171	13.31405844023734
O	-13.232083572628174	27.26859126673171	12.27609404023734
O	-10.253709462628173	28.68449336673171	10.314345820237339
O	-8.068988202628173	27.86255746673171	13.411269440237339
O	-5.490181732628173	26.15059186673171	11.269327740237339
O	-3.5125357526281724	23.81346886673171	13.36899084023734
O	-4.052416542628173	20.57901336673171	11.911628140237339
O	-3.6306987726281723	17.07841376673171	12.787522440237339
O	-5.983113292628172	14.442129466731712	11.647107340237339
O	-5.364239892628172	10.859054466731711	10.92399782023734
O	-8.251030442628172	8.567634056731713	10.153573720237338
O	-8.745763682628173	4.803721666731712	10.522044660237338
O	-10.379937512628173	5.295408216731712	14.096258240237338
O	-7.251246852628173	6.820667306731712	15.838078940237338
O	-5.329168902628172	4.5032131867317124	18.35350214023734
O	-1.6489611436281724	3.4064477267317117	17.50032724023734
O	-0.036301962628172424	5.516317566731712	20.40333834023734
O	-1.9330159026281724	8.762506516731712	19.44087214023734
O	-1.0487795246281724	8.103540166731712	15.812044240237338
O	2.7111620373718277	8.010051736731713	16.67258674023734
O	2.3572995673718276	11.124073866731711	18.73761144023734
O	0.5437306073718275	12.949225666731712	15.853757440237338
O	3.2568998973718277	11.823110466731713	13.391300840237339
O	6.084634157371827	12.688874666731712	15.695462740237339
O	4.363046957371827	16.00207306673171	16.37578574023734
O	3.9389042373718275	16.71385616673171	12.609373740237338
O	7.549351007371827	15.502032366731713	11.711852140237339
O	8.915279187371826	17.180352466731712	14.829485340237339
O	11.261183127371828	19.65812866673171	13.932698140237338
O	9.069335397371827	22.75402016673171	14.440752040237339
O	5.829594947371827	21.54902376673171	14.539718140237339
O	2.9747807173718277	24.053791066731712	14.504143540237338
O	1.0477897773718277	21.97545046673171	12.393389640237338
O	0.08487967737182756	23.27116436673171	9.08373755023734
O	-2.2062252726281724	20.72013046673171	7.71160733023734
O	-2.3740019926281724	17.08352996673171	8.07596290023734
O	-5.737573702628172	15.561088966731711	7.1677544302373395
O	-5.488325252628172	12.032040166731711	5.977359060237339
O	-7.910500602628172	9.555675166731712	4.67246576023734
O	-6.623534652628173	8.103788476731712	1.2720681040373394
O	-6.752855512628173	4.685884306731713	2.8626053502373394
O	-5.280874332628173	5.509476776731712	6.39943200023734
O	-2.5139052026281723	7.3019018067317125	4.5438322302373395
O	-1.7097932126281725	4.153672166731712	2.452808140237339
O	-0.2675484286281724	2.3555266867317117	5.7602464402373394
O	3.652061567371828	2.6991160967317116	6.053386790237339
O	3.7434223973718272	6.361535086731712	7.403201420237339
O	6.7202218173718276	8.628735386731712	6.6534887002373395
O	5.504480647371828	12.261122766731713	6.070785380237339
O	8.589903797371827	13.429621866731713	4.27808826023734
O	8.108421837371827	16.78148826673171	6.03842944023734
O	5.221427937371828	17.76494386673171	3.8176459202373394
O	5.837515107371827	19.35720776673171	0.42367836523733937
O	2.2714780173718276	19.78013036673171	-0.8450041097626608
O	-0.21636970262817246	17.08162146673171	-1.3796542197626607
O	-3.8734991226281723	17.90906816673171	-2.1076485197626607
O	-6.062699002628172	15.138810766731712	-3.4059882897626608
O	-9.620578782628172	16.36018476673171	-2.563362259762661
O	-11.423615872628172	13.367237066731713	-4.1075751797626605
O	-9.859872382628172	10.779937466731711	-6.460841089762661
O	-10.126897702628172	7.118747756731712	-5.98183997976266
O	-11.376795372628173	4.7640686667317125	-8.766291109762662
O	-8.052096542628172	3.0270682067317116	-8.431325319762662
O	-5.203697842628172	5.421837426731712	-9.382811759762662
O	-2.7529610826281723	3.1843886067317118	-7.36521599976266
O	-4.192831512628173	4.271957776731712	-3.9978035497626605
O	-3.5995540526281724	7.916140026731712	-4.953305939762661
O	-0.07313958262817244	7.091663336731712	-6.091404569762661
O	0.6492201873718275	5.437162556731712	-2.7247989397626604
O	-0.6439187433281724	8.467024246731713	-0.9153343897626607
O	1.5924682873718274	10.666110166731713	-2.9629698797626602
O	4.559924787371827	8.358873306731713	-2.2791225597626603
O	4.342190077371827	9.306739836731712	1.4745774092373394
O	5.308763387371828	12.820639566731712	0.8342841732373394
O	7.582769467371827	11.817451266731712	-2.076013519762661
O	9.753784427371826	9.484855966731713	0.023322110237339322
O	13.402642427371827	8.921738566731712	0.8161864712373393
O	14.099969127371827	11.904636166731713	3.203645840237339
O	12.160159027371828	14.534044266731712	1.2431378348373394
O	14.046992027371827	17.44580476673171	0.7913037832373393
O	11.453834727371827	19.61201806673171	-0.9425128997626608
O	9.721620727371826	19.31734456673171	-4.2766142797626605
O	6.478170427371827	17.75914106673171	-3.7900671997626603
O	3.4306076773718277	19.44645716673171	-5.36663136976266
O	0.46886579737182754	17.417500066731712	-5.961494179762661
O	-2.9555411626281725	19.10674676673171	-6.49972698976266
O	-5.822599752628172	17.00090646673171	-7.69069355976266
O	-9.304125672628173	18.60084106673171	-7.32871972976266
O	-11.912152272628173	17.55808286673171	-9.88205025976266
O	-15.526565572628172	18.76661206673171	-10.309699559762661
O	-16.228401272628172	19.48122086673171	-13.85927625976266
O	-19.18925177262817	17.71234876673171	-15.63950535976266
O	-19.596580772628172	15.456927866731712	-13.046627259762662
O	-19.128971172628173	11.906290866731712	-12.627359759762662
O	-15.665104972628173	12.755836766731711	-11.20465255976266
O	-14.294140572628173	13.441864866731713	-14.591198559762661
O	-15.377969972628172	10.174637666731712	-15.87144855976266
O	-13.652041772628174	8.641914116731712	-13.01403675976266
O	-10.416644422628172	10.373652866731712	-13.685425559762662
O	-10.521000392628173	9.320838526731713	-17.24837405976266
O	-11.073228572628173	5.804836326731713	-16.52959255976266
O	-8.315484852628172	5.912151696731712	-13.97950495976266
O	-5.921596682628172	7.233528966731712	-16.45027565976266
O	-6.833027872628172	4.467549796731713	-18.826637159762658
O	-6.045790062628173	1.994309296731712	-16.225354359762658
O	-2.6739765326281724	3.5414707767317117	-15.581287459762661
O	-1.8835966326281723	3.3689989267317118	-19.14228865976266
O	-2.6405217626281727	-0.2838588842682881	-19.254005359762658
O	-0.3400419946281724	-0.753911676268288	-16.309670859762658
O	2.2892723073718275	1.315280886731712	-17.96725135976266
O	1.8336019873718277	-0.7316027172682881	-21.164316959762658
O	1.9926214373718274	-4.189382023268288	-19.71899825976266
O	4.694835977371827	-3.737619483268288	-17.17233165976266
O	6.654883647371827	-0.3361942382682881	-17.40987225976266
O	7.7219413673718265	-1.4127274592682881	-20.76203935976266
O	9.148359297371828	-4.543853293268287	-19.12016175976266
O	12.795621027371826	-4.110751423268288	-18.42179105976266
O	12.696845427371827	-5.738501033268288	-15.09469975976266
O	15.622465127371829	-3.7503926232682883	-13.598502459762662
O	17.086226927371825	-7.259830853268288	-12.897982059762661
O	20.04547952737183	-5.923054323268288	-14.36729745976266
O	19.542647727371826	-8.519956533268289	-17.07793245976266
O	18.988405627371826	-11.496693733268287	-14.871876159762662
O	22.02047702737183	-11.141141833268287	-12.638269859762662
O	23.693817827371827	-11.307975233268287	-15.65235045976266
O	22.177572627371827	-14.755638433268288	-16.70877275976266
