27

O	7.56978839612646	9.93451752107112	3.142020170169073
O	8.982985591493192	5.050909187350688	4.503520411266145
O	8.694813627448573	6.835701235171011	3.21199383365446
O	9.520758099404958	7.596854860608904	4.979900031073488
O	9.821743379741584	7.673223891511614	3.825910914943238
O	9.055146408726504	8.539961084322117	5.523276125473504
O	8.800087421930394	9.628513611141305	3.723625419212508
O	8.818803593925526	9.614878154284566	4.8567337274903855
O	9.740036560331164	8.877759578294043	3.3340466537817592
O	8.232338410815322	10.734409957086656	2.3342926863388627
O	7.343773309811439	11.120868794622771	1.4538758902189615
O	6.797681362007859	10.721090097926112	0.5105995726215984
O	6.822836411498728	9.394253711775601	0.07874468895087092
O	8.012374556225407	9.243900694198452	0.6439971913630245
O	6.217243858081877	8.798396190375247	1.0441387803152942
O	6.521078810847651	7.536073899813045	1.1320796714514805
O	8.533129879097187	8.19505508738411	1.0550782784247141
O	7.737760803489958	7.29923712179922	1.286962062430127
O	8.207856954987799	5.8504357661255	3.7046673157495817
O	7.533916413479986	6.7209172473731575	4.477626544535589
O	6.948515246426962	7.504537615829367	3.7854690015113523
O	6.665414036348981	8.834136703335194	3.677877781104354
O	8.874099772487144	9.825506510237625	2.591346629424186
O	8.577452670039984	6.136749967615148	6.116835716557052
O	8.577452670039984	6.136749967615148	6.116835716557052
O	7.574400494121605	7.166463032736643	2.8036313636791466
O	9.841812130264396	6.060015552793966	5.641218526820829
