14

O	45.196507448103674	42.33386884087969	30.88728586787201
O	46.0416340580318	41.47054968422795	31.263712893935086
O	46.026436309587226	41.1752005932477	32.49975519762804
O	45.124136573480186	41.562314048637106	33.32376445965666
O	44.269038060293326	42.47439732043405	32.94829509647326
O	44.322873450422335	42.809443325989776	31.690966561973468
O	43.41308406424784	42.65081564868523	33.88750545636598
O	43.664936392264096	41.83773014192003	34.83130658464662
O	44.71896116786973	41.18212673281705	34.472831184397215
O	45.073417275454325	42.38168598750185	29.530570991465936
O	46.71701523712877	40.88558893609793	30.43962166920193
O	46.660133945247466	39.999298526258286	32.733403920119976
O	43.31995998931209	43.283238598643145	31.267957881490393
O	42.17949735653765	43.19591725421743	33.783747012302825
