21

O	26.743893618357717	5.0507819844661155	4.660955087568198
O	25.934696451146333	6.301210330985524	4.8355313465790735
O	24.612348348420113	6.082393791370655	4.232259940589054
O	23.866113460742117	7.05718643378939	3.966437573268958
O	24.038883395472705	4.755103718789808	4.496240272179468
O	24.727339463114287	3.6117249700752923	4.605053337978394
O	24.150790033397715	2.2735185590424725	4.686056124175084
O	24.892298826228473	1.1043649468426397	4.229886460334622
O	26.31521092553123	1.2994819677917944	4.624603354610744
O	26.915814499924494	2.632497423251947	4.329352866408415
O	26.11227090465676	3.7414540936422904	5.0150465715103465
O	28.284421082145435	2.6599873202671227	4.941822371846612
O	29.232104938207673	1.5156885540277465	4.552499759397736
O	28.538517560053172	0.20167951120790706	4.546473467630464
O	27.136465548064486	0.2825874963996591	3.9846866993814807
O	26.664902067907793	-1.1230009198375426	4.156000626456911
O	27.86055102788963	-1.9458934532418886	3.9160651373836224
O	28.931373176358733	-0.8899245944154301	3.5991492548713686
O	30.10277037080695	-1.4779632523626225	3.924666164566184
O	28.576284372186567	-0.24122937284989576	6.010560311358596
O	26.367092924674633	3.5041102734137413	6.499469158305765
